xflr5 v6.53

Plane name :        A0 E20 R-20
Polar name :        T1-15.0 m/s-VLM2-Inviscid
Freestream speed :  15.000 m/s


   alpha      Beta       CL          CDi        CDv        CD         CY         Cl         Cm         Cn        Cni       QInf        XCP
  -45.000     0.000  -2.835876   0.372896   0.000000   0.372896   0.018302   0.004543  -1.869586  -0.003675  -0.003675   15.0000     0.0617
  -44.000     0.000  -2.794865   0.364896   0.000000   0.364896   0.019268   0.004702  -1.862775  -0.003954  -0.003954   15.0000     0.0603
  -43.000     0.000  -2.752422   0.356380   0.000000   0.356380   0.020246   0.004855  -1.854341  -0.004243  -0.004243   15.0000     0.0589
  -42.000     0.000  -2.708538   0.347382   0.000000   0.347382   0.021235   0.005002  -1.844297  -0.004541  -0.004541   15.0000     0.0575
  -41.000     0.000  -2.663208   0.337936   0.000000   0.337936   0.022236   0.005142  -1.832654  -0.004848  -0.004848   15.0000     0.0560
  -40.000     0.000  -2.616429   0.328078   0.000000   0.328078   0.023245   0.005275  -1.819427  -0.005164  -0.005164   15.0000     0.0545
  -39.000     0.000  -2.568199   0.317846   0.000000   0.317846   0.024262   0.005401  -1.804631  -0.005488  -0.005488   15.0000     0.0530
  -38.000     0.000  -2.518521   0.307277   0.000000   0.307277   0.025286   0.005517  -1.788284  -0.005820  -0.005820   15.0000     0.0514
  -37.000     0.000  -2.467398   0.296410   0.000000   0.296410   0.026315   0.005626  -1.770407  -0.006160  -0.006160   15.0000     0.0497
  -36.000     0.000  -2.414835   0.285282   0.000000   0.285282   0.027348   0.005724  -1.751021  -0.006506  -0.006506   15.0000     0.0480
  -35.000     0.000  -2.360840   0.273935   0.000000   0.273935   0.028385   0.005813  -1.730150  -0.006859  -0.006859   15.0000     0.0462
  -34.000     0.000  -2.305424   0.262408   0.000000   0.262408   0.029423   0.005891  -1.707820  -0.007218  -0.007218   15.0000     0.0444
  -33.000     0.000  -2.248600   0.250741   0.000000   0.250741   0.030462   0.005959  -1.684056  -0.007581  -0.007581   15.0000     0.0425
  -32.000     0.000  -2.190383   0.238976   0.000000   0.238976   0.031499   0.006016  -1.658890  -0.007950  -0.007950   15.0000     0.0405
  -31.000     0.000  -2.130790   0.227152   0.000000   0.227152   0.032535   0.006061  -1.632350  -0.008323  -0.008323   15.0000     0.0384
  -30.000     0.000  -2.069841   0.215311   0.000000   0.215311   0.033567   0.006094  -1.604469  -0.008699  -0.008699   15.0000     0.0362
  -29.000     0.000  -2.007559   0.203493   0.000000   0.203493   0.034594   0.006115  -1.575283  -0.009078  -0.009078   15.0000     0.0338
  -28.000     0.000  -1.943968   0.191738   0.000000   0.191738   0.035616   0.006124  -1.544825  -0.009459  -0.009459   15.0000     0.0314
  -27.000     0.000  -1.879094   0.180086   0.000000   0.180086   0.036630   0.006119  -1.513133  -0.009841  -0.009841   15.0000     0.0287
  -26.000     0.000  -1.812968   0.168577   0.000000   0.168577   0.037637   0.006102  -1.480245  -0.010224  -0.010224   15.0000     0.0259
  -25.000     0.000  -1.745621   0.157249   0.000000   0.157249   0.038633   0.006072  -1.446203  -0.010608  -0.010608   15.0000     0.0229
  -24.000     0.000  -1.677085   0.146141   0.000000   0.146141   0.039619   0.006029  -1.411047  -0.010990  -0.010990   15.0000     0.0196
  -23.000     0.000  -1.607398   0.135290   0.000000   0.135290   0.040592   0.005972  -1.374820  -0.011372  -0.011372   15.0000     0.0161
  -22.000     0.000  -1.536596   0.124732   0.000000   0.124732   0.041553   0.005902  -1.337565  -0.011751  -0.011751   15.0000     0.0123
  -21.000     0.000  -1.464720   0.114503   0.000000   0.114503   0.042499   0.005819  -1.299330  -0.012127  -0.012127   15.0000     0.0081
  -20.000     0.000  -1.391811   0.104637   0.000000   0.104637   0.043430   0.005722  -1.260160  -0.012500  -0.012500   15.0000     0.0034
  -19.000     0.000  -1.317914   0.095168   0.000000   0.095168   0.044344   0.005612  -1.220102  -0.012869  -0.012869   15.0000    -0.0017
  -18.000     0.000  -1.243074   0.086126   0.000000   0.086126   0.045240   0.005488  -1.179207  -0.013233  -0.013233   15.0000    -0.0075
  -17.000     0.000  -1.167339   0.077544   0.000000   0.077544   0.046117   0.005351  -1.137522  -0.013591  -0.013591   15.0000    -0.0140
  -16.000     0.000  -1.090758   0.069449   0.000000   0.069449   0.046974   0.005201  -1.095100  -0.013942  -0.013942   15.0000    -0.0215
  -15.000     0.000  -1.013381   0.061869   0.000000   0.061869   0.047811   0.005039  -1.051993  -0.014287  -0.014287   15.0000    -0.0300
  -14.000     0.000  -0.935261   0.054830   0.000000   0.054830   0.048625   0.004863  -1.008251  -0.014624  -0.014624   15.0000    -0.0401
  -13.000     0.000  -0.856452   0.048356   0.000000   0.048356   0.049417   0.004675  -0.963929  -0.014952  -0.014952   15.0000    -0.0519
  -12.000     0.000  -0.777008   0.042469   0.000000   0.042469   0.050184   0.004475  -0.919082  -0.015271  -0.015271   15.0000    -0.0663
  -11.000     0.000  -0.696986   0.037190   0.000000   0.037190   0.050927   0.004263  -0.873762  -0.015580  -0.015580   15.0000    -0.0839
  -10.000     0.000  -0.616443   0.032538   0.000000   0.032538   0.051644   0.004040  -0.828026  -0.015879  -0.015879   15.0000    -0.1062
   -9.000     0.000  -0.535437   0.028529   0.000000   0.028529   0.052334   0.003805  -0.781930  -0.016167  -0.016167   15.0000    -0.1352
   -8.000     0.000  -0.454028   0.025178   0.000000   0.025178   0.052996   0.003560  -0.735529  -0.016443  -0.016443   15.0000    -0.1747
   -7.000     0.000  -0.372276   0.022497   0.000000   0.022497   0.053631   0.003305  -0.688880  -0.016707  -0.016707   15.0000    -0.2316
   -6.000     0.000  -0.290241   0.020498   0.000000   0.020498   0.054236   0.003039  -0.642040  -0.016959  -0.016959   15.0000    -0.3207
   -5.000     0.000  -0.207984   0.019188   0.000000   0.019188   0.054811   0.002765  -0.595067  -0.017197  -0.017197   15.0000    -0.4805
   -4.000     0.000  -0.125568   0.018574   0.000000   0.018574   0.055356   0.002482  -0.548016  -0.017421  -0.017421   15.0000    -0.8501
   -3.000     0.000  -0.043054   0.018661   0.000000   0.018661   0.055870   0.002190  -0.500946  -0.017631  -0.017631   15.0000    -2.6369
   -2.000     0.000   0.039496   0.019451   0.000000   0.019451   0.056352   0.001891  -0.453913  -0.017826  -0.017826   15.0000     3.0453
   -1.000     0.000   0.122019   0.020943   0.000000   0.020943   0.056801   0.001585  -0.406976  -0.018006  -0.018006   15.0000     1.0407
    0.000     0.000   0.204453   0.023135   0.000000   0.023135   0.057218   0.001272  -0.360191  -0.018171  -0.018171   15.0000     0.6538
    1.000     0.000   0.286736   0.026023   0.000000   0.026023   0.057601   0.000953  -0.313616  -0.018319  -0.018319   15.0000     0.4893
    2.000     0.000   0.368807   0.029601   0.000000   0.029601   0.057950   0.000630  -0.267306  -0.018452  -0.018452   15.0000     0.3983
    3.000     0.000   0.450604   0.033859   0.000000   0.033859   0.058265   0.000301  -0.221320  -0.018568  -0.018568   15.0000     0.3405
    4.000     0.000   0.532066   0.038788   0.000000   0.038788   0.058545  -0.000031  -0.175711  -0.018668  -0.018668   15.0000     0.3006
    5.000     0.000   0.613134   0.044374   0.000000   0.044374   0.058790  -0.000366  -0.130537  -0.018750  -0.018750   15.0000     0.2714
    6.000     0.000   0.693747   0.050603   0.000000   0.050603   0.059000  -0.000704  -0.085852  -0.018816  -0.018816   15.0000     0.2491
    7.000     0.000   0.773847   0.057458   0.000000   0.057458   0.059174  -0.001043  -0.041711  -0.018864  -0.018864   15.0000     0.2315
    8.000     0.000   0.853377   0.064919   0.000000   0.064919   0.059312  -0.001384   0.001833  -0.018895  -0.018895   15.0000     0.2173
    9.000     0.000   0.932280   0.072968   0.000000   0.072968   0.059414  -0.001725   0.044727  -0.018908  -0.018908   15.0000     0.2056
   10.000     0.000   1.010501   0.081580   0.000000   0.081580   0.059480  -0.002066   0.086918  -0.018904  -0.018904   15.0000     0.1958
   11.000     0.000   1.087986   0.090732   0.000000   0.090732   0.059510  -0.002405   0.128355  -0.018883  -0.018883   15.0000     0.1875
   12.000     0.000   1.164683   0.100397   0.000000   0.100397   0.059504  -0.002743   0.168987  -0.018844  -0.018844   15.0000     0.1803
   13.000     0.000   1.240540   0.110549   0.000000   0.110549   0.059461  -0.003078   0.208765  -0.018788  -0.018788   15.0000     0.1741
   14.000     0.000   1.315507   0.121157   0.000000   0.121157   0.059382  -0.003410   0.247641  -0.018715  -0.018715   15.0000     0.1687
   15.000     0.000   1.389538   0.132192   0.000000   0.132192   0.059267  -0.003739   0.285567  -0.018625  -0.018625   15.0000     0.1639
   16.000     0.000   1.462586   0.143621   0.000000   0.143621   0.059116  -0.004062   0.322496  -0.018518  -0.018518   15.0000     0.1597
   17.000     0.000   1.534606   0.155411   0.000000   0.155411   0.058930  -0.004381   0.358385  -0.018395  -0.018395   15.0000     0.1559
   18.000     0.000   1.605557   0.167528   0.000000   0.167528   0.058708  -0.004693   0.393189  -0.018255  -0.018255   15.0000     0.1525
   19.000     0.000   1.675399   0.179934   0.000000   0.179934   0.058450  -0.004999   0.426865  -0.018099  -0.018099   15.0000     0.1495
   20.000     0.000   1.744092   0.192595   0.000000   0.192595   0.058158  -0.005298   0.459373  -0.017927  -0.017927   15.0000     0.1468
   21.000     0.000   1.811600   0.205472   0.000000   0.205472   0.057831  -0.005589   0.490674  -0.017740  -0.017740   15.0000     0.1443
   22.000     0.000   1.877890   0.218526   0.000000   0.218526   0.057470  -0.005871   0.520728  -0.017538  -0.017538   15.0000     0.1420
   23.000     0.000   1.942930   0.231719   0.000000   0.231719   0.057075  -0.006145   0.549500  -0.017322  -0.017322   15.0000     0.1400
   24.000     0.000   2.006690   0.245011   0.000000   0.245011   0.056646  -0.006409   0.576954  -0.017092  -0.017092   15.0000     0.1381
   25.000     0.000   2.069143   0.258361   0.000000   0.258361   0.056185  -0.006662   0.603057  -0.016848  -0.016848   15.0000     0.1364
   26.000     0.000   2.130263   0.271728   0.000000   0.271728   0.055692  -0.006906   0.627777  -0.016590  -0.016590   15.0000     0.1348
   27.000     0.000   2.190029   0.285073   0.000000   0.285073   0.055167  -0.007138   0.651084  -0.016321  -0.016321   15.0000     0.1334
   28.000     0.000   2.248419   0.298353   0.000000   0.298353   0.054612  -0.007359   0.672949  -0.016039  -0.016039   15.0000     0.1321
   29.000     0.000   2.305416   0.311528   0.000000   0.311528   0.054026  -0.007567   0.693347  -0.015746  -0.015746   15.0000     0.1309
   30.000     0.000   2.361004   0.324556   0.000000   0.324556   0.053410  -0.007764   0.712251  -0.015443  -0.015443   15.0000     0.1298
   31.000     0.000   2.415170   0.337396   0.000000   0.337396   0.052766  -0.007948   0.729640  -0.015129  -0.015129   15.0000     0.1287
   32.000     0.000   2.467902   0.350009   0.000000   0.350009   0.052093  -0.008118   0.745491  -0.014805  -0.014805   15.0000     0.1278
   33.000     0.000   2.519193   0.362353   0.000000   0.362353   0.051393  -0.008276   0.759786  -0.014473  -0.014473   15.0000     0.1269
   34.000     0.000   2.569036   0.374390   0.000000   0.374390   0.050667  -0.008420   0.772507  -0.014133  -0.014133   15.0000     0.1261
   35.000     0.000   2.617428   0.386080   0.000000   0.386080   0.049916  -0.008550   0.783639  -0.013785  -0.013785   15.0000     0.1254
   36.000     0.000   2.664366   0.397385   0.000000   0.397385   0.049140  -0.008666   0.793168  -0.013430  -0.013430   15.0000     0.1247
   37.000     0.000   2.709851   0.408267   0.000000   0.408267   0.048340  -0.008768   0.801082  -0.013069  -0.013069   15.0000     0.1241
   38.000     0.000   2.753886   0.418690   0.000000   0.418690   0.047518  -0.008856   0.807372  -0.012703  -0.012703   15.0000     0.1235
   39.000     0.000   2.796475   0.428619   0.000000   0.428619   0.046674  -0.008929   0.812030  -0.012332  -0.012332   15.0000     0.1229
   40.000     0.000   2.837627   0.438019   0.000000   0.438019   0.045810  -0.008988   0.815051  -0.011957  -0.011957   15.0000     0.1224
   41.000     0.000   2.877350   0.446858   0.000000   0.446858   0.044925  -0.009033   0.816430  -0.011580  -0.011580   15.0000     0.1220
   42.000     0.000   2.915655   0.455103   0.000000   0.455103   0.044023  -0.009063   0.816167  -0.011199  -0.011199   15.0000     0.1216
   43.000     0.000   2.952556   0.462725   0.000000   0.462725   0.043103  -0.009079   0.814261  -0.010817  -0.010817   15.0000     0.1212
   44.000     0.000   2.988066   0.469694   0.000000   0.469694   0.042167  -0.009081   0.810715  -0.010434  -0.010434   15.0000     0.1208
   45.000     0.000   3.022203   0.475985   0.000000   0.475985   0.041215  -0.009069   0.805532  -0.010050  -0.010050   15.0000     0.1205


