xflr5 v6.53

Plane name :        A0 E0 R20
Polar name :        T1-20.0 m/s-VLM2-Inviscid
Freestream speed :  20.000 m/s


   alpha      Beta       CL          CDi        CDv        CD         CY         Cl         Cm         Cn        Cni       QInf        XCP
  -45.000     0.000  -2.927263   0.422219   0.000000   0.422219  -0.019617  -0.004262  -1.678411   0.003684   0.003684   20.0000     0.0918
  -44.000     0.000  -2.889413   0.414801   0.000000   0.414801  -0.020679  -0.004423  -1.665844   0.003975   0.003975   20.0000     0.0913
  -43.000     0.000  -2.850143   0.406789   0.000000   0.406789  -0.021755  -0.004580  -1.651688   0.004276   0.004276   20.0000     0.0908
  -42.000     0.000  -2.809440   0.398214   0.000000   0.398214  -0.022846  -0.004730  -1.635961   0.004587   0.004587   20.0000     0.0902
  -41.000     0.000  -2.767297   0.389108   0.000000   0.389108  -0.023948  -0.004874  -1.618682   0.004908   0.004908   20.0000     0.0897
  -40.000     0.000  -2.723703   0.379507   0.000000   0.379507  -0.025062  -0.005011  -1.599871   0.005240   0.005240   20.0000     0.0892
  -39.000     0.000  -2.678655   0.369444   0.000000   0.369444  -0.026186  -0.005140  -1.579553   0.005580   0.005580   20.0000     0.0887
  -38.000     0.000  -2.632148   0.358956   0.000000   0.358956  -0.027318  -0.005260  -1.557751   0.005929   0.005929   20.0000     0.0882
  -37.000     0.000  -2.584182   0.348081   0.000000   0.348081  -0.028457  -0.005372  -1.534492   0.006287   0.006287   20.0000     0.0877
  -36.000     0.000  -2.534756   0.336856   0.000000   0.336856  -0.029601  -0.005474  -1.509804   0.006652   0.006652   20.0000     0.0872
  -35.000     0.000  -2.483875   0.325321   0.000000   0.325321  -0.030750  -0.005566  -1.483718   0.007024   0.007024   20.0000     0.0867
  -34.000     0.000  -2.431544   0.313514   0.000000   0.313514  -0.031901  -0.005647  -1.456265   0.007404   0.007404   20.0000     0.0862
  -33.000     0.000  -2.377770   0.301477   0.000000   0.301477  -0.033054  -0.005717  -1.427479   0.007789   0.007789   20.0000     0.0857
  -32.000     0.000  -2.322565   0.289250   0.000000   0.289250  -0.034207  -0.005776  -1.397394   0.008180   0.008180   20.0000     0.0853
  -31.000     0.000  -2.265940   0.276873   0.000000   0.276873  -0.035358  -0.005823  -1.366048   0.008575   0.008575   20.0000     0.0848
  -30.000     0.000  -2.207911   0.264388   0.000000   0.264388  -0.036507  -0.005858  -1.333479   0.008975   0.008975   20.0000     0.0843
  -29.000     0.000  -2.148495   0.251836   0.000000   0.251836  -0.037651  -0.005880  -1.299726   0.009379   0.009379   20.0000     0.0838
  -28.000     0.000  -2.087712   0.239258   0.000000   0.239258  -0.038790  -0.005889  -1.264830   0.009785   0.009785   20.0000     0.0834
  -27.000     0.000  -2.025584   0.226695   0.000000   0.226695  -0.039922  -0.005885  -1.228834   0.010193   0.010193   20.0000     0.0829
  -26.000     0.000  -1.962136   0.214188   0.000000   0.214188  -0.041045  -0.005867  -1.191783   0.010603   0.010603   20.0000     0.0824
  -25.000     0.000  -1.897394   0.201777   0.000000   0.201777  -0.042159  -0.005836  -1.153720   0.011013   0.011013   20.0000     0.0819
  -24.000     0.000  -1.831387   0.189503   0.000000   0.189503  -0.043261  -0.005791  -1.114692   0.011424   0.011424   20.0000     0.0815
  -23.000     0.000  -1.764148   0.177405   0.000000   0.177405  -0.044351  -0.005732  -1.074747   0.011833   0.011833   20.0000     0.0810
  -22.000     0.000  -1.695709   0.165521   0.000000   0.165521  -0.045427  -0.005659  -1.033934   0.012241   0.012241   20.0000     0.0805
  -21.000     0.000  -1.626106   0.153890   0.000000   0.153890  -0.046489  -0.005571  -0.992302   0.012646   0.012646   20.0000     0.0800
  -20.000     0.000  -1.555378   0.142548   0.000000   0.142548  -0.047533  -0.005469  -0.949902   0.013048   0.013048   20.0000     0.0795
  -19.000     0.000  -1.483564   0.131532   0.000000   0.131532  -0.048560  -0.005354  -0.906786   0.013446   0.013446   20.0000     0.0790
  -18.000     0.000  -1.410706   0.120875   0.000000   0.120875  -0.049569  -0.005224  -0.863006   0.013839   0.013839   20.0000     0.0784
  -17.000     0.000  -1.336848   0.110613   0.000000   0.110613  -0.050557  -0.005080  -0.818615   0.014227   0.014227   20.0000     0.0778
  -16.000     0.000  -1.262037   0.100777   0.000000   0.100777  -0.051523  -0.004922  -0.773668   0.014608   0.014608   20.0000     0.0772
  -15.000     0.000  -1.186319   0.091398   0.000000   0.091398  -0.052467  -0.004750  -0.728219   0.014983   0.014983   20.0000     0.0766
  -14.000     0.000  -1.109744   0.082507   0.000000   0.082507  -0.053388  -0.004565  -0.682324   0.015349   0.015349   20.0000     0.0759
  -13.000     0.000  -1.032364   0.074129   0.000000   0.074129  -0.054284  -0.004366  -0.636039   0.015707   0.015707   20.0000     0.0751
  -12.000     0.000  -0.954229   0.066293   0.000000   0.066293  -0.055153  -0.004155  -0.589420   0.016056   0.016056   20.0000     0.0742
  -11.000     0.000  -0.875396   0.059023   0.000000   0.059023  -0.055996  -0.003930  -0.542523   0.016395   0.016395   20.0000     0.0732
  -10.000     0.000  -0.795917   0.052341   0.000000   0.052341  -0.056811  -0.003694  -0.495407   0.016723   0.016723   20.0000     0.0721
   -9.000     0.000  -0.715851   0.046268   0.000000   0.046268  -0.057597  -0.003445  -0.448127   0.017040   0.017040   20.0000     0.0707
   -8.000     0.000  -0.635254   0.040824   0.000000   0.040824  -0.058353  -0.003185  -0.400743   0.017344   0.017344   20.0000     0.0690
   -7.000     0.000  -0.554186   0.036026   0.000000   0.036026  -0.059078  -0.002914  -0.353312   0.017636   0.017636   20.0000     0.0668
   -6.000     0.000  -0.472705   0.031888   0.000000   0.031888  -0.059772  -0.002632  -0.305891   0.017915   0.017915   20.0000     0.0640
   -5.000     0.000  -0.390872   0.028424   0.000000   0.028424  -0.060433  -0.002340  -0.258538   0.018180   0.018180   20.0000     0.0600
   -4.000     0.000  -0.308749   0.025645   0.000000   0.025645  -0.061060  -0.002039  -0.211311   0.018430   0.018430   20.0000     0.0539
   -3.000     0.000  -0.226396   0.023560   0.000000   0.023560  -0.061654  -0.001728  -0.164268   0.018666   0.018666   20.0000     0.0433
   -2.000     0.000  -0.143875   0.022175   0.000000   0.022175  -0.062212  -0.001409  -0.117466   0.018886   0.018886   20.0000     0.0208
   -1.000     0.000  -0.061250   0.021495   0.000000   0.021495  -0.062735  -0.001083  -0.070961   0.019090   0.019090   20.0000    -0.0626
    0.000     0.000   0.021418   0.021523   0.000000   0.021523  -0.063222  -0.000749  -0.024811   0.019278   0.019278   20.0000     0.4974
    1.000     0.000   0.104066   0.022258   0.000000   0.022258  -0.063672  -0.000409   0.020928   0.019450   0.019450   20.0000     0.1679
    2.000     0.000   0.186632   0.023700   0.000000   0.023700  -0.064084  -0.000063   0.066201   0.019604   0.019604   20.0000     0.1301
    3.000     0.000   0.269053   0.025843   0.000000   0.025843  -0.064459   0.000288   0.110953   0.019741   0.019741   20.0000     0.1156
    4.000     0.000   0.351266   0.028682   0.000000   0.028682  -0.064796   0.000644   0.155128   0.019860   0.019860   20.0000     0.1079
    5.000     0.000   0.433211   0.032208   0.000000   0.032208  -0.065094   0.001003   0.198673   0.019961   0.019961   20.0000     0.1031
    6.000     0.000   0.514827   0.036410   0.000000   0.036410  -0.065352   0.001365   0.241535   0.020043   0.020043   20.0000     0.0999
    7.000     0.000   0.596051   0.041277   0.000000   0.041277  -0.065572   0.001729   0.283662   0.020108   0.020108   20.0000     0.0976
    8.000     0.000   0.676826   0.046794   0.000000   0.046794  -0.065752   0.002095   0.325003   0.020154   0.020154   20.0000     0.0959
    9.000     0.000   0.757092   0.052943   0.000000   0.052943  -0.065892   0.002462   0.365506   0.020181   0.020181   20.0000     0.0946
   10.000     0.000   0.836791   0.059706   0.000000   0.059706  -0.065992   0.002828   0.405124   0.020190   0.020190   20.0000     0.0936
   11.000     0.000   0.915866   0.067063   0.000000   0.067063  -0.066051   0.003193   0.443807   0.020180   0.020180   20.0000     0.0928
   12.000     0.000   0.994261   0.074992   0.000000   0.074992  -0.066071   0.003557   0.481508   0.020152   0.020152   20.0000     0.0922
   13.000     0.000   1.071924   0.083468   0.000000   0.083468  -0.066050   0.003918   0.518181   0.020105   0.020105   20.0000     0.0917
   14.000     0.000   1.148799   0.092465   0.000000   0.092465  -0.065989   0.004277   0.553783   0.020039   0.020039   20.0000     0.0913
   15.000     0.000   1.224837   0.101955   0.000000   0.101955  -0.065888   0.004631   0.588268   0.019955   0.019955   20.0000     0.0910
   16.000     0.000   1.299987   0.111910   0.000000   0.111910  -0.065747   0.004980   0.621596   0.019853   0.019853   20.0000     0.0907
   17.000     0.000   1.374201   0.122299   0.000000   0.122299  -0.065566   0.005325   0.653726   0.019733   0.019733   20.0000     0.0906
   18.000     0.000   1.447433   0.133090   0.000000   0.133090  -0.065346   0.005663   0.684618   0.019595   0.019595   20.0000     0.0904
   19.000     0.000   1.519638   0.144250   0.000000   0.144250  -0.065086   0.005994   0.714235   0.019440   0.019440   20.0000     0.0903
   20.000     0.000   1.590774   0.155743   0.000000   0.155743  -0.064787   0.006318   0.742541   0.019268   0.019268   20.0000     0.0903
   21.000     0.000   1.660800   0.167534   0.000000   0.167534  -0.064449   0.006633   0.769502   0.019079   0.019079   20.0000     0.0903
   22.000     0.000   1.729677   0.179587   0.000000   0.179587  -0.064073   0.006940   0.795084   0.018874   0.018874   20.0000     0.0903
   23.000     0.000   1.797369   0.191863   0.000000   0.191863  -0.063659   0.007237   0.819256   0.018652   0.018652   20.0000     0.0904
   24.000     0.000   1.863843   0.204324   0.000000   0.204324  -0.063208   0.007524   0.841990   0.018416   0.018416   20.0000     0.0905
   25.000     0.000   1.929065   0.216931   0.000000   0.216931  -0.062721   0.007801   0.863256   0.018164   0.018164   20.0000     0.0906
   26.000     0.000   1.993005   0.229643   0.000000   0.229643  -0.062197   0.008066   0.883030   0.017899   0.017899   20.0000     0.0908
   27.000     0.000   2.055638   0.242421   0.000000   0.242421  -0.061637   0.008319   0.901287   0.017619   0.017619   20.0000     0.0909
   28.000     0.000   2.116936   0.255224   0.000000   0.255224  -0.061043   0.008561   0.918005   0.017326   0.017326   20.0000     0.0911
   29.000     0.000   2.176878   0.268010   0.000000   0.268010  -0.060414   0.008789   0.933164   0.017021   0.017021   20.0000     0.0913
   30.000     0.000   2.235442   0.280739   0.000000   0.280739  -0.059753   0.009004   0.946744   0.016703   0.016703   20.0000     0.0915
   31.000     0.000   2.292612   0.293368   0.000000   0.293368  -0.059058   0.009206   0.958731   0.016374   0.016374   20.0000     0.0918
   32.000     0.000   2.348370   0.305858   0.000000   0.305858  -0.058332   0.009394   0.969108   0.016035   0.016035   20.0000     0.0920
   33.000     0.000   2.402704   0.318166   0.000000   0.318166  -0.057575   0.009567   0.977864   0.015685   0.015685   20.0000     0.0923
   34.000     0.000   2.455602   0.330252   0.000000   0.330252  -0.056789   0.009726   0.984987   0.015326   0.015326   20.0000     0.0926
   35.000     0.000   2.507057   0.342076   0.000000   0.342076  -0.055973   0.009870   0.990469   0.014959   0.014959   20.0000     0.0929
   36.000     0.000   2.557062   0.353598   0.000000   0.353598  -0.055129   0.009998   0.994304   0.014584   0.014584   20.0000     0.0932
   37.000     0.000   2.605612   0.364778   0.000000   0.364778  -0.054259   0.010112   0.996486   0.014202   0.014202   20.0000     0.0935
   38.000     0.000   2.652706   0.375579   0.000000   0.375579  -0.053362   0.010210   0.997014   0.013814   0.013814   20.0000     0.0939
   39.000     0.000   2.698346   0.385963   0.000000   0.385963  -0.052441   0.010292   0.995885   0.013420   0.013420   20.0000     0.0942
   40.000     0.000   2.742533   0.395892   0.000000   0.395892  -0.051496   0.010359   0.993103   0.013021   0.013021   20.0000     0.0946
   41.000     0.000   2.785273   0.405333   0.000000   0.405333  -0.050529   0.010410   0.988669   0.012619   0.012619   20.0000     0.0949
   42.000     0.000   2.826572   0.414249   0.000000   0.414249  -0.049540   0.010446   0.982590   0.012213   0.012213   20.0000     0.0953
   43.000     0.000   2.866441   0.422609   0.000000   0.422609  -0.048532   0.010466   0.974873   0.011805   0.011805   20.0000     0.0957
   44.000     0.000   2.904890   0.430380   0.000000   0.430380  -0.047504   0.010470   0.965527   0.011395   0.011395   20.0000     0.0961
   45.000     0.000   2.941932   0.437531   0.000000   0.437531  -0.046459   0.010459   0.954564   0.010985   0.010985   20.0000     0.0965


