xflr5 v6.53

Plane name :        Plane Name
Polar name :        T1-20.0 m/s-VLM2-Inviscid
Freestream speed :  20.000 m/s


   alpha      Beta       CL          CDi        CDv        CD         CY         Cl         Cm         Cn        Cni       QInf        XCP
  -45.000     0.000  -2.940020   0.420494   0.000000   0.420494  -0.000000   0.000000  -1.669100   0.000000   0.000000   20.0000     0.0933
  -44.000     0.000  -2.902675   0.412835   0.000000   0.412835  -0.000000   0.000000  -1.656091   0.000000   0.000000   20.0000     0.0928
  -43.000     0.000  -2.863906   0.404567   0.000000   0.404567  -0.000000   0.000000  -1.641489   0.000000   0.000000   20.0000     0.0924
  -42.000     0.000  -2.823703   0.395720   0.000000   0.395720  -0.000000   0.000000  -1.625315   0.000000   0.000000   20.0000     0.0919
  -41.000     0.000  -2.782054   0.386327   0.000000   0.386327  -0.000000   0.000000  -1.607585   0.000000   0.000000   20.0000     0.0915
  -40.000     0.000  -2.738949   0.376421   0.000000   0.376421  -0.000000   0.000000  -1.588324   0.000000   0.000000   20.0000     0.0910
  -39.000     0.000  -2.694383   0.366039   0.000000   0.366039  -0.000000   0.000000  -1.567553   0.000000   0.000000   20.0000     0.0906
  -38.000     0.000  -2.648351   0.355218   0.000000   0.355218  -0.000000   0.000000  -1.545299   0.000000   0.000000   20.0000     0.0902
  -37.000     0.000  -2.600850   0.343993   0.000000   0.343993  -0.000000   0.000000  -1.521588   0.000000   0.000000   20.0000     0.0897
  -36.000     0.000  -2.551882   0.332404   0.000000   0.332404  -0.000000   0.000000  -1.496450   0.000000   0.000000   20.0000     0.0893
  -35.000     0.000  -2.501446   0.320491   0.000000   0.320491  -0.000000   0.000000  -1.469914   0.000000   0.000000   20.0000     0.0889
  -34.000     0.000  -2.449550   0.308293   0.000000   0.308293  -0.000000   0.000000  -1.442014   0.000000   0.000000   20.0000     0.0885
  -33.000     0.000  -2.396199   0.295850   0.000000   0.295850  -0.000000   0.000000  -1.412783   0.000000   0.000000   20.0000     0.0882
  -32.000     0.000  -2.341402   0.283204   0.000000   0.283204  -0.000000   0.000000  -1.382256   0.000000   0.000000   20.0000     0.0878
  -31.000     0.000  -2.285172   0.270396   0.000000   0.270396  -0.000000   0.000000  -1.350472   0.000000   0.000000   20.0000     0.0874
  -30.000     0.000  -2.227523   0.257469   0.000000   0.257469  -0.000000   0.000000  -1.317469   0.000000   0.000000   20.0000     0.0871
  -29.000     0.000  -2.168471   0.244463   0.000000   0.244463  -0.000000   0.000000  -1.283286   0.000000   0.000000   20.0000     0.0867
  -28.000     0.000  -2.108036   0.231421   0.000000   0.231421  -0.000000   0.000000  -1.247966   0.000000   0.000000   20.0000     0.0864
  -27.000     0.000  -2.046238   0.218384   0.000000   0.218384  -0.000000   0.000000  -1.211552   0.000000   0.000000   20.0000     0.0860
  -26.000     0.000  -1.983101   0.205394   0.000000   0.205394  -0.000000   0.000000  -1.174088   0.000000   0.000000   20.0000     0.0857
  -25.000     0.000  -1.918652   0.192492   0.000000   0.192492  -0.000000   0.000000  -1.135619   0.000000   0.000000   20.0000     0.0854
  -24.000     0.000  -1.852919   0.179719   0.000000   0.179719  -0.000000   0.000000  -1.096193   0.000000   0.000000   20.0000     0.0851
  -23.000     0.000  -1.785933   0.167116   0.000000   0.167116  -0.000000   0.000000  -1.055857   0.000000   0.000000   20.0000     0.0849
  -22.000     0.000  -1.717727   0.154721   0.000000   0.154721  -0.000000   0.000000  -1.014662   0.000000   0.000000   20.0000     0.0846
  -21.000     0.000  -1.648337   0.142574   0.000000   0.142574  -0.000000   0.000000  -0.972656   0.000000   0.000000   20.0000     0.0843
  -20.000     0.000  -1.577799   0.130713   0.000000   0.130713  -0.000000   0.000000  -0.929891   0.000000   0.000000   20.0000     0.0841
  -19.000     0.000  -1.506153   0.119174   0.000000   0.119174  -0.000000   0.000000  -0.886419   0.000000   0.000000   20.0000     0.0838
  -18.000     0.000  -1.433441   0.107993   0.000000   0.107993  -0.000000   0.000000  -0.842294   0.000000   0.000000   20.0000     0.0836
  -17.000     0.000  -1.359707   0.097205   0.000000   0.097205  -0.000000   0.000000  -0.797568   0.000000   0.000000   20.0000     0.0834
  -16.000     0.000  -1.284996   0.086843   0.000000   0.086843  -0.000000   0.000000  -0.752297   0.000000   0.000000   20.0000     0.0832
  -15.000     0.000  -1.209355   0.076940   0.000000   0.076940  -0.000000   0.000000  -0.706535   0.000000   0.000000   20.0000     0.0830
  -14.000     0.000  -1.132835   0.067526   0.000000   0.067526  -0.000000   0.000000  -0.660339   0.000000   0.000000   20.0000     0.0828
  -13.000     0.000  -1.055484   0.058629   0.000000   0.058629  -0.000000   0.000000  -0.613764   0.000000   0.000000   20.0000     0.0827
  -12.000     0.000  -0.977357   0.050277   0.000000   0.050277  -0.000000   0.000000  -0.566868   0.000000   0.000000   20.0000     0.0825
  -11.000     0.000  -0.898506   0.042496   0.000000   0.042496  -0.000000   0.000000  -0.519707   0.000000   0.000000   20.0000     0.0824
  -10.000     0.000  -0.818987   0.035310   0.000000   0.035310  -0.000000   0.000000  -0.472339   0.000000   0.000000   20.0000     0.0822
   -9.000     0.000  -0.738857   0.028740   0.000000   0.028740  -0.000000   0.000000  -0.424822   0.000000   0.000000   20.0000     0.0821
   -8.000     0.000  -0.658174   0.022807   0.000000   0.022807  -0.000000   0.000000  -0.377213   0.000000   0.000000   20.0000     0.0820
   -7.000     0.000  -0.576995   0.017528   0.000000   0.017528  -0.000000   0.000000  -0.329570   0.000000   0.000000   20.0000     0.0819
   -6.000     0.000  -0.495381   0.012921   0.000000   0.012921  -0.000000   0.000000  -0.281953   0.000000   0.000000   20.0000     0.0818
   -5.000     0.000  -0.413393   0.008998   0.000000   0.008998  -0.000000   0.000000  -0.234417   0.000000   0.000000   20.0000     0.0818
   -4.000     0.000  -0.331092   0.005772   0.000000   0.005772  -0.000000   0.000000  -0.187023   0.000000   0.000000   20.0000     0.0817
   -3.000     0.000  -0.248539   0.003252   0.000000   0.003252  -0.000000   0.000000  -0.139826   0.000000   0.000000   20.0000     0.0817
   -2.000     0.000  -0.165798   0.001447   0.000000   0.001447  -0.000000   0.000000  -0.092886   0.000000   0.000000   20.0000     0.0816
   -1.000     0.000  -0.082930   0.000362   0.000000   0.000362  -0.000000   0.000000  -0.046258   0.000000   0.000000   20.0000     0.0816
    0.000     0.000   0.000000   0.000000   0.000000   0.000000   0.000000   0.000000   0.000000  -0.000000  -0.000000   20.0000    -1.8879
    1.000     0.000   0.082930   0.000362   0.000000   0.000362   0.000000  -0.000000   0.045832  -0.000000  -0.000000   20.0000     0.0816
    2.000     0.000   0.165797   0.001447   0.000000   0.001447   0.000000  -0.000000   0.091182  -0.000000  -0.000000   20.0000     0.0816
    3.000     0.000   0.248537   0.003252   0.000000   0.003252   0.000000  -0.000000   0.135995  -0.000000  -0.000000   20.0000     0.0817
    4.000     0.000   0.331089   0.005771   0.000000   0.005771   0.000000  -0.000000   0.180215  -0.000000  -0.000000   20.0000     0.0817
    5.000     0.000   0.413388   0.008997   0.000000   0.008997   0.000000  -0.000000   0.223791  -0.000000  -0.000000   20.0000     0.0818
    6.000     0.000   0.495374   0.012920   0.000000   0.012920   0.000000  -0.000000   0.266667  -0.000000  -0.000000   20.0000     0.0818
    7.000     0.000   0.576985   0.017527   0.000000   0.017527   0.000000  -0.000000   0.308793  -0.000000  -0.000000   20.0000     0.0819
    8.000     0.000   0.658161   0.022805   0.000000   0.022805   0.000000  -0.000000   0.350116  -0.000000  -0.000000   20.0000     0.0820
    9.000     0.000   0.738841   0.028738   0.000000   0.028738   0.000000  -0.000000   0.390586  -0.000000  -0.000000   20.0000     0.0821
   10.000     0.000   0.818968   0.035307   0.000000   0.035307   0.000000  -0.000000   0.430155  -0.000000  -0.000000   20.0000     0.0822
   11.000     0.000   0.898483   0.042492   0.000000   0.042492   0.000000  -0.000000   0.468773  -0.000000  -0.000000   20.0000     0.0824
   12.000     0.000   0.977329   0.050271   0.000000   0.050271   0.000000  -0.000000   0.506394  -0.000000  -0.000000   20.0000     0.0825
   13.000     0.000   1.055452   0.058622   0.000000   0.058622   0.000000  -0.000000   0.542972  -0.000000  -0.000000   20.0000     0.0827
   14.000     0.000   1.132797   0.067516   0.000000   0.067516   0.000000  -0.000000   0.578463  -0.000000  -0.000000   20.0000     0.0828
   15.000     0.000   1.209313   0.076929   0.000000   0.076929   0.000000  -0.000000   0.612822  -0.000000  -0.000000   20.0000     0.0830
   16.000     0.000   1.284948   0.086830   0.000000   0.086830   0.000000  -0.000000   0.646009  -0.000000  -0.000000   20.0000     0.0832
   17.000     0.000   1.359653   0.097189   0.000000   0.097189   0.000000  -0.000000   0.677983  -0.000000  -0.000000   20.0000     0.0834
   18.000     0.000   1.433382   0.107974   0.000000   0.107974   0.000000  -0.000000   0.708704  -0.000000  -0.000000   20.0000     0.0836
   19.000     0.000   1.506087   0.119151   0.000000   0.119151   0.000000  -0.000000   0.738136  -0.000000  -0.000000   20.0000     0.0838
   20.000     0.000   1.577727   0.130686   0.000000   0.130686   0.000000  -0.000000   0.766243  -0.000000  -0.000000   20.0000     0.0841
   21.000     0.000   1.648258   0.142544   0.000000   0.142544   0.000000  -0.000000   0.792990  -0.000000  -0.000000   20.0000     0.0843
   22.000     0.000   1.717642   0.154687   0.000000   0.154687   0.000000  -0.000000   0.818344  -0.000000  -0.000000   20.0000     0.0846
   23.000     0.000   1.785842   0.167077   0.000000   0.167077   0.000000  -0.000000   0.842276  -0.000000  -0.000000   20.0000     0.0849
   24.000     0.000   1.852821   0.179675   0.000000   0.179675   0.000000  -0.000000   0.864755  -0.000000  -0.000000   20.0000     0.0851
   25.000     0.000   1.918546   0.192443   0.000000   0.192443   0.000000  -0.000000   0.885754  -0.000000  -0.000000   20.0000     0.0854
   26.000     0.000   1.982988   0.205339   0.000000   0.205339   0.000000  -0.000000   0.905249  -0.000000  -0.000000   20.0000     0.0857
   27.000     0.000   2.046118   0.218323   0.000000   0.218323   0.000000  -0.000000   0.923214  -0.000000  -0.000000   20.0000     0.0861
   28.000     0.000   2.107908   0.231353   0.000000   0.231353   0.000000  -0.000000   0.939628  -0.000000  -0.000000   20.0000     0.0864
   29.000     0.000   2.168337   0.244388   0.000000   0.244388   0.000000  -0.000000   0.954472  -0.000000  -0.000000   20.0000     0.0867
   30.000     0.000   2.227382   0.257387   0.000000   0.257387   0.000000  -0.000000   0.967726  -0.000000  -0.000000   20.0000     0.0871
   31.000     0.000   2.285024   0.270307   0.000000   0.270307   0.000000  -0.000000   0.979376  -0.000000  -0.000000   20.0000     0.0874
   32.000     0.000   2.341247   0.283107   0.000000   0.283107   0.000000  -0.000000   0.989406  -0.000000  -0.000000   20.0000     0.0878
   33.000     0.000   2.396036   0.295744   0.000000   0.295744   0.000000  -0.000000   0.997804  -0.000000  -0.000000   20.0000     0.0882
   34.000     0.000   2.449380   0.308178   0.000000   0.308178   0.000000  -0.000000   1.004561  -0.000000  -0.000000   20.0000     0.0885
   35.000     0.000   2.501270   0.320368   0.000000   0.320368   0.000000  -0.000000   1.009667  -0.000000  -0.000000   20.0000     0.0889
   36.000     0.000   2.551699   0.332272   0.000000   0.332272   0.000000  -0.000000   1.013118  -0.000000  -0.000000   20.0000     0.0893
   37.000     0.000   2.600661   0.343850   0.000000   0.343850   0.000000  -0.000000   1.014908  -0.000000  -0.000000   20.0000     0.0897
   38.000     0.000   2.648156   0.355065   0.000000   0.355065   0.000000  -0.000000   1.015035  -0.000000  -0.000000   20.0000     0.0902
   39.000     0.000   2.694182   0.365876   0.000000   0.365876   0.000000  -0.000000   1.013500  -0.000000  -0.000000   20.0000     0.0906
   40.000     0.000   2.738742   0.376248   0.000000   0.376248   0.000000  -0.000000   1.010304  -0.000000  -0.000000   20.0000     0.0910
   41.000     0.000   2.781841   0.386142   0.000000   0.386142   0.000000   0.000000   1.005450  -0.000000  -0.000000   20.0000     0.0915
   42.000     0.000   2.823485   0.395524   0.000000   0.395524   0.000000  -0.000000   0.998946  -0.000000  -0.000000   20.0000     0.0919
   43.000     0.000   2.863684   0.404360   0.000000   0.404360   0.000000  -0.000000   0.990798  -0.000000  -0.000000   20.0000     0.0924
   44.000     0.000   2.902447   0.412616   0.000000   0.412616   0.000000  -0.000000   0.981018  -0.000000  -0.000000   20.0000     0.0928
   45.000     0.000   2.939789   0.420262   0.000000   0.420262   0.000000  -0.000000   0.969615  -0.000000  -0.000000   20.0000     0.0933


