xflr5 v6.53

Plane name :        A-20 E-20 R-20
Polar name :        T1-25.0 m/s-VLM2-Inviscid
Freestream speed :  25.000 m/s


   alpha      Beta       CL          CDi        CDv        CD         CY         Cl         Cm         Cn        Cni       QInf        XCP
  -45.000     0.000  -2.812072   0.515666   0.000000   0.515666   0.082571   0.056049  -1.179702  -0.016688  -0.016688   25.0000     0.1503
  -44.000     0.000  -2.782848   0.509284   0.000000   0.509284   0.083618   0.056378  -1.161814  -0.017058  -0.017058   25.0000     0.1505
  -43.000     0.000  -2.752292   0.502158   0.000000   0.502158   0.084583   0.056678  -1.142659  -0.017414  -0.017414   25.0000     0.1506
  -42.000     0.000  -2.720383   0.494316   0.000000   0.494316   0.085465   0.056949  -1.122260  -0.017754  -0.017754   25.0000     0.1508
  -41.000     0.000  -2.687102   0.485790   0.000000   0.485790   0.086263   0.057193  -1.100642  -0.018078  -0.018078   25.0000     0.1510
  -40.000     0.000  -2.652431   0.476609   0.000000   0.476609   0.086976   0.057409  -1.077831  -0.018386  -0.018386   25.0000     0.1513
  -39.000     0.000  -2.616356   0.466809   0.000000   0.466809   0.087604   0.057599  -1.053856  -0.018676  -0.018676   25.0000     0.1516
  -38.000     0.000  -2.578864   0.456423   0.000000   0.456423   0.088145   0.057762  -1.028745  -0.018948  -0.018948   25.0000     0.1520
  -37.000     0.000  -2.539943   0.445488   0.000000   0.445488   0.088599   0.057900  -1.002529  -0.019202  -0.019202   25.0000     0.1524
  -36.000     0.000  -2.499585   0.434042   0.000000   0.434042   0.088965   0.058013  -0.975240  -0.019438  -0.019438   25.0000     0.1528
  -35.000     0.000  -2.457784   0.422122   0.000000   0.422122   0.089243   0.058101  -0.946912  -0.019654  -0.019654   25.0000     0.1534
  -34.000     0.000  -2.414535   0.409770   0.000000   0.409770   0.089432   0.058166  -0.917578  -0.019850  -0.019850   25.0000     0.1539
  -33.000     0.000  -2.369836   0.397025   0.000000   0.397025   0.089533   0.058208  -0.887274  -0.020026  -0.020026   25.0000     0.1546
  -32.000     0.000  -2.323688   0.383930   0.000000   0.383930   0.089545   0.058227  -0.856038  -0.020182  -0.020182   25.0000     0.1553
  -31.000     0.000  -2.276095   0.370526   0.000000   0.370526   0.089468   0.058225  -0.823908  -0.020318  -0.020318   25.0000     0.1561
  -30.000     0.000  -2.227061   0.356857   0.000000   0.356857   0.089302   0.058203  -0.790922  -0.020432  -0.020432   25.0000     0.1570
  -29.000     0.000  -2.176595   0.342966   0.000000   0.342966   0.089048   0.058160  -0.757120  -0.020526  -0.020526   25.0000     0.1580
  -28.000     0.000  -2.124706   0.328898   0.000000   0.328898   0.088705   0.058098  -0.722545  -0.020599  -0.020599   25.0000     0.1591
  -27.000     0.000  -2.071409   0.314695   0.000000   0.314695   0.088274   0.058018  -0.687238  -0.020650  -0.020650   25.0000     0.1602
  -26.000     0.000  -2.016718   0.300403   0.000000   0.300403   0.087756   0.057920  -0.651242  -0.020680  -0.020680   25.0000     0.1616
  -25.000     0.000  -1.960652   0.286065   0.000000   0.286065   0.087152   0.057805  -0.614601  -0.020690  -0.020690   25.0000     0.1630
  -24.000     0.000  -1.903232   0.271726   0.000000   0.271726   0.086461   0.057675  -0.577359  -0.020677  -0.020677   25.0000     0.1646
  -23.000     0.000  -1.844479   0.257429   0.000000   0.257429   0.085686   0.057529  -0.539563  -0.020644  -0.020644   25.0000     0.1664
  -22.000     0.000  -1.784420   0.243219   0.000000   0.243219   0.084826   0.057369  -0.501257  -0.020591  -0.020591   25.0000     0.1684
  -21.000     0.000  -1.723082   0.229138   0.000000   0.229138   0.083883   0.057196  -0.462489  -0.020516  -0.020516   25.0000     0.1706
  -20.000     0.000  -1.660497   0.215228   0.000000   0.215228   0.082858   0.057009  -0.423306  -0.020421  -0.020421   25.0000     0.1730
  -19.000     0.000  -1.596696   0.201533   0.000000   0.201533   0.081752   0.056811  -0.383756  -0.020306  -0.020306   25.0000     0.1757
  -18.000     0.000  -1.531714   0.188091   0.000000   0.188091   0.080567   0.056602  -0.343886  -0.020171  -0.020171   25.0000     0.1787
  -17.000     0.000  -1.465590   0.174944   0.000000   0.174944   0.079304   0.056382  -0.303746  -0.020017  -0.020017   25.0000     0.1820
  -16.000     0.000  -1.398362   0.162130   0.000000   0.162130   0.077965   0.056153  -0.263385  -0.019844  -0.019844   25.0000     0.1858
  -15.000     0.000  -1.330071   0.149687   0.000000   0.149687   0.076551   0.055914  -0.222850  -0.019652  -0.019652   25.0000     0.1900
  -14.000     0.000  -1.260763   0.137652   0.000000   0.137652   0.075063   0.055668  -0.182193  -0.019442  -0.019442   25.0000     0.1947
  -13.000     0.000  -1.190482   0.126060   0.000000   0.126060   0.073505   0.055414  -0.141462  -0.019215  -0.019215   25.0000     0.2002
  -12.000     0.000  -1.119275   0.114944   0.000000   0.114944   0.071877   0.055153  -0.100707  -0.018971  -0.018971   25.0000     0.2064
  -11.000     0.000  -1.047193   0.104336   0.000000   0.104336   0.070182   0.054886  -0.059978  -0.018711  -0.018711   25.0000     0.2135
  -10.000     0.000  -0.974287   0.094267   0.000000   0.094267   0.068422   0.054614  -0.019324  -0.018435  -0.018435   25.0000     0.2219
   -9.000     0.000  -0.900608   0.084766   0.000000   0.084766   0.066598   0.054336   0.021205  -0.018144  -0.018144   25.0000     0.2317
   -8.000     0.000  -0.826212   0.075860   0.000000   0.075860   0.064714   0.054054   0.061559  -0.017839  -0.017839   25.0000     0.2434
   -7.000     0.000  -0.751155   0.067574   0.000000   0.067574   0.062770   0.053768   0.101691  -0.017521  -0.017521   25.0000     0.2576
   -6.000     0.000  -0.675493   0.059930   0.000000   0.059930   0.060771   0.053479   0.141550  -0.017190  -0.017190   25.0000     0.2750
   -5.000     0.000  -0.599284   0.052950   0.000000   0.052950   0.058718   0.053187   0.181088  -0.016847  -0.016847   25.0000     0.2971
   -4.000     0.000  -0.522588   0.046653   0.000000   0.046653   0.056613   0.052892   0.220257  -0.016493  -0.016493   25.0000     0.3257
   -3.000     0.000  -0.445466   0.041056   0.000000   0.041056   0.054460   0.052595   0.259010  -0.016128  -0.016128   25.0000     0.3645
   -2.000     0.000  -0.367978   0.036174   0.000000   0.036174   0.052261   0.052296   0.297298  -0.015754  -0.015754   25.0000     0.4198
   -1.000     0.000  -0.290187   0.032018   0.000000   0.032018   0.050018   0.051996   0.335076  -0.015372  -0.015372   25.0000     0.5049
    0.000     0.000  -0.212155   0.028600   0.000000   0.028600   0.047734   0.051694   0.372298  -0.014982  -0.014982   25.0000     0.6530
    1.000     0.000  -0.133945   0.025928   0.000000   0.025928   0.045413   0.051392   0.408917  -0.014585  -0.014585   25.0000     0.9742
    2.000     0.000  -0.055621   0.024006   0.000000   0.024006   0.043056   0.051089   0.444890  -0.014182  -0.014182   25.0000     2.2009
    3.000     0.000   0.022754   0.022838   0.000000   0.022838   0.040667   0.050785   0.480172  -0.013774  -0.013774   25.0000    -5.0236
    4.000     0.000   0.101115   0.022427   0.000000   0.022427   0.038249   0.050480   0.514721  -0.013362  -0.013362   25.0000    -1.0499
    5.000     0.000   0.179400   0.022769   0.000000   0.022769   0.035804   0.050175   0.548494  -0.012947  -0.012947   25.0000    -0.5461
    6.000     0.000   0.257545   0.023862   0.000000   0.023862   0.033336   0.049869   0.581451  -0.012529  -0.012529   25.0000    -0.3485
    7.000     0.000   0.335485   0.025700   0.000000   0.025700   0.030848   0.049563   0.613551  -0.012111  -0.012111   25.0000    -0.2430
    8.000     0.000   0.413159   0.028275   0.000000   0.028275   0.028342   0.049257   0.644755  -0.011691  -0.011691   25.0000    -0.1773
    9.000     0.000   0.490503   0.031576   0.000000   0.031576   0.025822   0.048950   0.675025  -0.011272  -0.011272   25.0000    -0.1325
   10.000     0.000   0.567457   0.035590   0.000000   0.035590   0.023291   0.048642   0.704324  -0.010855  -0.010855   25.0000    -0.0999
   11.000     0.000   0.643958   0.040303   0.000000   0.040303   0.020751   0.048333   0.732617  -0.010439  -0.010439   25.0000    -0.0751
   12.000     0.000   0.719948   0.045698   0.000000   0.045698   0.018207   0.048023   0.759869  -0.010027  -0.010027   25.0000    -0.0556
   13.000     0.000   0.795367   0.051756   0.000000   0.051756   0.015660   0.047712   0.786046  -0.009618  -0.009618   25.0000    -0.0398
   14.000     0.000   0.870157   0.058455   0.000000   0.058455   0.013115   0.047399   0.811118  -0.009214  -0.009214   25.0000    -0.0268
   15.000     0.000   0.944261   0.065772   0.000000   0.065772   0.010574   0.047084   0.835053  -0.008815  -0.008815   25.0000    -0.0158
   16.000     0.000   1.017625   0.073683   0.000000   0.073683   0.008040   0.046766   0.857822  -0.008422  -0.008422   25.0000    -0.0065
   17.000     0.000   1.090194   0.082160   0.000000   0.082160   0.005517   0.046446   0.879398  -0.008037  -0.008037   25.0000     0.0017
   18.000     0.000   1.161916   0.091174   0.000000   0.091174   0.003007   0.046123   0.899754  -0.007659  -0.007659   25.0000     0.0088
   19.000     0.000   1.232741   0.100695   0.000000   0.100695   0.000514   0.045796   0.918865  -0.007289  -0.007289   25.0000     0.0150
   20.000     0.000   1.302619   0.110691   0.000000   0.110691  -0.001960   0.045465   0.936708  -0.006928  -0.006928   25.0000     0.0207
   21.000     0.000   1.371505   0.121128   0.000000   0.121128  -0.004411   0.045130   0.953262  -0.006577  -0.006577   25.0000     0.0257
   22.000     0.000   1.439351   0.131972   0.000000   0.131972  -0.006837   0.044789   0.968506  -0.006235  -0.006235   25.0000     0.0303
   23.000     0.000   1.506117   0.143185   0.000000   0.143185  -0.009234   0.044443   0.982421  -0.005905  -0.005905   25.0000     0.0345
   24.000     0.000   1.571761   0.154731   0.000000   0.154731  -0.011599   0.044091   0.994992  -0.005585  -0.005585   25.0000     0.0383
   25.000     0.000   1.636243   0.166570   0.000000   0.166570  -0.013930   0.043732   1.006201  -0.005278  -0.005278   25.0000     0.0419
   26.000     0.000   1.699528   0.178663   0.000000   0.178663  -0.016224   0.043366   1.016036  -0.004982  -0.004982   25.0000     0.0452
   27.000     0.000   1.761582   0.190969   0.000000   0.190969  -0.018478   0.042992   1.024485  -0.004699  -0.004699   25.0000     0.0483
   28.000     0.000   1.822371   0.203446   0.000000   0.203446  -0.020689   0.042609   1.031538  -0.004428  -0.004428   25.0000     0.0512
   29.000     0.000   1.881868   0.216053   0.000000   0.216053  -0.022855   0.042217   1.037185  -0.004171  -0.004171   25.0000     0.0539
   30.000     0.000   1.940044   0.228747   0.000000   0.228747  -0.024973   0.041815   1.041420  -0.003926  -0.003926   25.0000     0.0565
   31.000     0.000   1.996875   0.241484   0.000000   0.241484  -0.027040   0.041402   1.044239  -0.003696  -0.003696   25.0000     0.0590
   32.000     0.000   2.052339   0.254221   0.000000   0.254221  -0.029054   0.040979   1.045636  -0.003479  -0.003479   25.0000     0.0613
   33.000     0.000   2.106416   0.266914   0.000000   0.266914  -0.031012   0.040544   1.045611  -0.003276  -0.003276   25.0000     0.0636
   34.000     0.000   2.159089   0.279520   0.000000   0.279520  -0.032913   0.040096   1.044164  -0.003087  -0.003087   25.0000     0.0658
   35.000     0.000   2.210344   0.291995   0.000000   0.291995  -0.034753   0.039635   1.041296  -0.002912  -0.002912   25.0000     0.0678
   36.000     0.000   2.260167   0.304294   0.000000   0.304294  -0.036530   0.039160   1.037011  -0.002751  -0.002751   25.0000     0.0699
   37.000     0.000   2.308550   0.316376   0.000000   0.316376  -0.038243   0.038671   1.031314  -0.002603  -0.002603   25.0000     0.0718
   38.000     0.000   2.355485   0.328197   0.000000   0.328197  -0.039889   0.038167   1.024213  -0.002470  -0.002470   25.0000     0.0737
   39.000     0.000   2.400968   0.339714   0.000000   0.339714  -0.041466   0.037648   1.015715  -0.002350  -0.002350   25.0000     0.0755
   40.000     0.000   2.444996   0.350886   0.000000   0.350886  -0.042972   0.037112   1.005831  -0.002243  -0.002243   25.0000     0.0773
   41.000     0.000   2.487569   0.361673   0.000000   0.361673  -0.044406   0.036560   0.994574  -0.002150  -0.002150   25.0000     0.0791
   42.000     0.000   2.528691   0.372034   0.000000   0.372034  -0.045766   0.035990   0.981956  -0.002069  -0.002069   25.0000     0.0808
   43.000     0.000   2.568367   0.381929   0.000000   0.381929  -0.047049   0.035402   0.967994  -0.002002  -0.002002   25.0000     0.0825
   44.000     0.000   2.606602   0.391322   0.000000   0.391322  -0.048255   0.034796   0.952704  -0.001946  -0.001946   25.0000     0.0842
   45.000     0.000   2.643408   0.400175   0.000000   0.400175  -0.049382   0.034172   0.936104  -0.001902  -0.001902   25.0000     0.0858


