xflr5 v6.53

Plane name :        A0 E20 R0
Polar name :        T1-10.0 m/s-VLM2-Inviscid
Freestream speed :  10.000 m/s


   alpha      Beta       CL          CDi        CDv        CD         CY         Cl         Cm         Cn        Cni       QInf        XCP
  -45.000     0.000  -2.838063   0.371303   0.000000   0.371303  -0.000000   0.000000  -1.868568   0.000000   0.000000   10.0000     0.0618
  -44.000     0.000  -2.797110   0.363209   0.000000   0.363209  -0.000000   0.000000  -1.861707   0.000000   0.000000   10.0000     0.0605
  -43.000     0.000  -2.754722   0.354597   0.000000   0.354597  -0.000000   0.000000  -1.853224   0.000000   0.000000   10.0000     0.0591
  -42.000     0.000  -2.710891   0.345499   0.000000   0.345499  -0.000000   0.000000  -1.843129   0.000000   0.000000   10.0000     0.0576
  -41.000     0.000  -2.665613   0.335952   0.000000   0.335952  -0.000000   0.000000  -1.831436   0.000000   0.000000   10.0000     0.0562
  -40.000     0.000  -2.618883   0.325990   0.000000   0.325990  -0.000000   0.000000  -1.818158   0.000000   0.000000   10.0000     0.0547
  -39.000     0.000  -2.570701   0.315651   0.000000   0.315651  -0.000000   0.000000  -1.803311   0.000000   0.000000   10.0000     0.0531
  -38.000     0.000  -2.521068   0.304972   0.000000   0.304972  -0.000000   0.000000  -1.786913   0.000000   0.000000   10.0000     0.0515
  -37.000     0.000  -2.469986   0.293992   0.000000   0.293992  -0.000000   0.000000  -1.768985   0.000000   0.000000   10.0000     0.0499
  -36.000     0.000  -2.417462   0.282750   0.000000   0.282750  -0.000000   0.000000  -1.749549   0.000000   0.000000   10.0000     0.0482
  -35.000     0.000  -2.363503   0.271286   0.000000   0.271286  -0.000000   0.000000  -1.728627   0.000000   0.000000   10.0000     0.0464
  -34.000     0.000  -2.308119   0.259641   0.000000   0.259641  -0.000000   0.000000  -1.706246   0.000000   0.000000   10.0000     0.0446
  -33.000     0.000  -2.251324   0.247854   0.000000   0.247854  -0.000000   0.000000  -1.682433   0.000000   0.000000   10.0000     0.0427
  -32.000     0.000  -2.193132   0.235967   0.000000   0.235967  -0.000000   0.000000  -1.657216   0.000000   0.000000   10.0000     0.0407
  -31.000     0.000  -2.133561   0.224020   0.000000   0.224020  -0.000000   0.000000  -1.630627   0.000000   0.000000   10.0000     0.0386
  -30.000     0.000  -2.072630   0.212055   0.000000   0.212055  -0.000000   0.000000  -1.602698   0.000000   0.000000   10.0000     0.0364
  -29.000     0.000  -2.010362   0.200112   0.000000   0.200112  -0.000000   0.000000  -1.573462   0.000000   0.000000   10.0000     0.0341
  -28.000     0.000  -1.946781   0.188230   0.000000   0.188230  -0.000000   0.000000  -1.542957   0.000000   0.000000   10.0000     0.0317
  -27.000     0.000  -1.881913   0.176452   0.000000   0.176452  -0.000000   0.000000  -1.511218   0.000000   0.000000   10.0000     0.0290
  -26.000     0.000  -1.815789   0.164816   0.000000   0.164816  -0.000000   0.000000  -1.478284   0.000000   0.000000   10.0000     0.0263
  -25.000     0.000  -1.748439   0.153361   0.000000   0.153361  -0.000000   0.000000  -1.444196   0.000000   0.000000   10.0000     0.0233
  -24.000     0.000  -1.679896   0.142125   0.000000   0.142125  -0.000000   0.000000  -1.408994   0.000000   0.000000   10.0000     0.0200
  -23.000     0.000  -1.610197   0.131147   0.000000   0.131147  -0.000000   0.000000  -1.372723   0.000000   0.000000   10.0000     0.0165
  -22.000     0.000  -1.539380   0.120463   0.000000   0.120463  -0.000000   0.000000  -1.335426   0.000000   0.000000   10.0000     0.0127
  -21.000     0.000  -1.467483   0.110108   0.000000   0.110108  -0.000000   0.000000  -1.297148   0.000000   0.000000   10.0000     0.0086
  -20.000     0.000  -1.394550   0.100118   0.000000   0.100118  -0.000000   0.000000  -1.257937   0.000000   0.000000   10.0000     0.0040
  -19.000     0.000  -1.320624   0.090525   0.000000   0.090525  -0.000000   0.000000  -1.217839   0.000000   0.000000   10.0000    -0.0011
  -18.000     0.000  -1.245750   0.081362   0.000000   0.081362  -0.000000   0.000000  -1.176904   0.000000   0.000000   10.0000    -0.0069
  -17.000     0.000  -1.169977   0.072659   0.000000   0.072659  -0.000000   0.000000  -1.135182   0.000000   0.000000   10.0000    -0.0133
  -16.000     0.000  -1.093353   0.064445   0.000000   0.064445  -0.000000   0.000000  -1.092723   0.000000   0.000000   10.0000    -0.0207
  -15.000     0.000  -1.015929   0.056749   0.000000   0.056749  -0.000000   0.000000  -1.049580   0.000000   0.000000   10.0000    -0.0292
  -14.000     0.000  -0.937758   0.049595   0.000000   0.049595  -0.000000   0.000000  -1.005804   0.000000   0.000000   10.0000    -0.0391
  -13.000     0.000  -0.858892   0.043010   0.000000   0.043010  -0.000000   0.000000  -0.961450   0.000000   0.000000   10.0000    -0.0509
  -12.000     0.000  -0.779389   0.037014   0.000000   0.037014  -0.000000   0.000000  -0.916571   0.000000   0.000000   10.0000    -0.0650
  -11.000     0.000  -0.699302   0.031630   0.000000   0.031630  -0.000000   0.000000  -0.871221   0.000000   0.000000   10.0000    -0.0824
  -10.000     0.000  -0.618691   0.026875   0.000000   0.026875  -0.000000   0.000000  -0.825457   0.000000   0.000000   10.0000    -0.1044
   -9.000     0.000  -0.537613   0.022766   0.000000   0.022766  -0.000000   0.000000  -0.779333   0.000000   0.000000   10.0000    -0.1331
   -8.000     0.000  -0.456128   0.019319   0.000000   0.019319  -0.000000   0.000000  -0.732907   0.000000   0.000000   10.0000    -0.1721
   -7.000     0.000  -0.374296   0.016547   0.000000   0.016547  -0.000000   0.000000  -0.686234   0.000000   0.000000   10.0000    -0.2281
   -6.000     0.000  -0.292178   0.014459   0.000000   0.014459  -0.000000   0.000000  -0.639372   0.000000   0.000000   10.0000    -0.3157
   -5.000     0.000  -0.209835   0.013066   0.000000   0.013066  -0.000000   0.000000  -0.592377   0.000000   0.000000   10.0000    -0.4722
   -4.000     0.000  -0.127328   0.012373   0.000000   0.012373  -0.000000   0.000000  -0.545307   0.000000   0.000000   10.0000    -0.8317
   -3.000     0.000  -0.044721   0.012385   0.000000   0.012385  -0.000000   0.000000  -0.498219   0.000000   0.000000   10.0000    -2.5195
   -2.000     0.000   0.037925   0.013104   0.000000   0.013104  -0.000000   0.000000  -0.451171   0.000000   0.000000   10.0000     3.1489
   -1.000     0.000   0.120546   0.014530   0.000000   0.014530  -0.000000  -0.000000  -0.404220   0.000000   0.000000   10.0000     1.0463
    0.000     0.000   0.203082   0.016662   0.000000   0.016662  -0.000000  -0.000000  -0.357423   0.000000   0.000000   10.0000     0.6539
    1.000     0.000   0.285469   0.019495   0.000000   0.019495  -0.000000  -0.000000  -0.310836   0.000000   0.000000   10.0000     0.4884
    2.000     0.000   0.367646   0.023022   0.000000   0.023022  -0.000000  -0.000000  -0.264518   0.000000   0.000000   10.0000     0.3972
    3.000     0.000   0.449551   0.027235   0.000000   0.027235  -0.000000  -0.000000  -0.218524   0.000000   0.000000   10.0000     0.3394
    4.000     0.000   0.531123   0.032124   0.000000   0.032124  -0.000000  -0.000000  -0.172910   0.000000   0.000000   10.0000     0.2995
    5.000     0.000   0.612302   0.037676   0.000000   0.037676  -0.000000  -0.000000  -0.127732   0.000000   0.000000   10.0000     0.2703
    6.000     0.000   0.693028   0.043876   0.000000   0.043876  -0.000000  -0.000000  -0.083045   0.000000   0.000000   10.0000     0.2480
    7.000     0.000   0.773242   0.050707   0.000000   0.050707  -0.000000  -0.000000  -0.038904   0.000000   0.000000   10.0000     0.2305
    8.000     0.000   0.852887   0.058152   0.000000   0.058152   0.000000  -0.000000   0.004639  -0.000000  -0.000000   10.0000     0.2164
    9.000     0.000   0.931906   0.066188   0.000000   0.066188   0.000000  -0.000000   0.047529   0.000000   0.000000   10.0000     0.2047
   10.000     0.000   1.010243   0.074794   0.000000   0.074794   0.000000  -0.000000   0.089715  -0.000000  -0.000000   10.0000     0.1949
   11.000     0.000   1.087845   0.083945   0.000000   0.083945   0.000000  -0.000000   0.131145  -0.000000  -0.000000   10.0000     0.1867
   12.000     0.000   1.164658   0.093616   0.000000   0.093616   0.000000  -0.000000   0.171768  -0.000000  -0.000000   10.0000     0.1795
   13.000     0.000   1.240631   0.103779   0.000000   0.103779   0.000000  -0.000000   0.211536  -0.000000  -0.000000   10.0000     0.1734
   14.000     0.000   1.315715   0.114404   0.000000   0.114404   0.000000  -0.000000   0.250400  -0.000000  -0.000000   10.0000     0.1680
   15.000     0.000   1.389861   0.125462   0.000000   0.125462   0.000000  -0.000000   0.288312  -0.000000  -0.000000   10.0000     0.1632
   16.000     0.000   1.463023   0.136919   0.000000   0.136919   0.000000  -0.000000   0.325226  -0.000000  -0.000000   10.0000     0.1590
   17.000     0.000   1.535157   0.148742   0.000000   0.148742   0.000000  -0.000000   0.361097  -0.000000  -0.000000   10.0000     0.1553
   18.000     0.000   1.606220   0.160898   0.000000   0.160898   0.000000  -0.000000   0.395882  -0.000000  -0.000000   10.0000     0.1519
   19.000     0.000   1.676172   0.173349   0.000000   0.173349   0.000000  -0.000000   0.429538  -0.000000  -0.000000   10.0000     0.1489
   20.000     0.000   1.744973   0.186060   0.000000   0.186060   0.000000  -0.000000   0.462024  -0.000000  -0.000000   10.0000     0.1462
   21.000     0.000   1.812589   0.198991   0.000000   0.198991   0.000000  -0.000000   0.493300  -0.000000  -0.000000   10.0000     0.1437
   22.000     0.000   1.878984   0.212106   0.000000   0.212106   0.000000  -0.000000   0.523329  -0.000000  -0.000000   10.0000     0.1415
   23.000     0.000   1.944126   0.225364   0.000000   0.225364   0.000000  -0.000000   0.552074  -0.000000  -0.000000   10.0000     0.1395
   24.000     0.000   2.007986   0.238726   0.000000   0.238726   0.000000  -0.000000   0.579500  -0.000000  -0.000000   10.0000     0.1376
   25.000     0.000   2.070536   0.252151   0.000000   0.252151   0.000000  -0.000000   0.605573  -0.000000  -0.000000   10.0000     0.1359
   26.000     0.000   2.131751   0.265599   0.000000   0.265599   0.000000  -0.000000   0.630262  -0.000000  -0.000000   10.0000     0.1343
   27.000     0.000   2.191607   0.279027   0.000000   0.279027   0.000000  -0.000000   0.653536  -0.000000  -0.000000   10.0000     0.1329
   28.000     0.000   2.250086   0.292396   0.000000   0.292396   0.000000  -0.000000   0.675368  -0.000000  -0.000000   10.0000     0.1316
   29.000     0.000   2.307167   0.305663   0.000000   0.305663   0.000000  -0.000000   0.695730  -0.000000  -0.000000   10.0000     0.1304
   30.000     0.000   2.362836   0.318787   0.000000   0.318787   0.000000  -0.000000   0.714598  -0.000000  -0.000000   10.0000     0.1293
   31.000     0.000   2.417079   0.331728   0.000000   0.331728   0.000000  -0.000000   0.731949  -0.000000  -0.000000   10.0000     0.1283
   32.000     0.000   2.469886   0.344445   0.000000   0.344445   0.000000  -0.000000   0.747762  -0.000000  -0.000000   10.0000     0.1273
   33.000     0.000   2.521247   0.356896   0.000000   0.356896   0.000000  -0.000000   0.762017  -0.000000  -0.000000   10.0000     0.1265
   34.000     0.000   2.571156   0.369043   0.000000   0.369043   0.000000  -0.000000   0.774697  -0.000000  -0.000000   10.0000     0.1257
   35.000     0.000   2.619609   0.380846   0.000000   0.380846   0.000000  -0.000000   0.785786  -0.000000  -0.000000   10.0000     0.1250
   36.000     0.000   2.666604   0.392267   0.000000   0.392267   0.000000  -0.000000   0.795272  -0.000000  -0.000000   10.0000     0.1243
   37.000     0.000   2.712143   0.403267   0.000000   0.403267   0.000000  -0.000000   0.803142  -0.000000  -0.000000   10.0000     0.1236
   38.000     0.000   2.756227   0.413811   0.000000   0.413811   0.000000  -0.000000   0.809388  -0.000000  -0.000000   10.0000     0.1231
   39.000     0.000   2.798862   0.423863   0.000000   0.423863   0.000000  -0.000000   0.814000  -0.000000  -0.000000   10.0000     0.1225
   40.000     0.000   2.840054   0.433388   0.000000   0.433388   0.000000  -0.000000   0.816974  -0.000000  -0.000000   10.0000     0.1221
   41.000     0.000   2.879813   0.442352   0.000000   0.442352   0.000000  -0.000000   0.818307  -0.000000  -0.000000   10.0000     0.1216
   42.000     0.000   2.918150   0.450725   0.000000   0.450725   0.000000  -0.000000   0.817996  -0.000000  -0.000000   10.0000     0.1212
   43.000     0.000   2.955078   0.458476   0.000000   0.458476   0.000000  -0.000000   0.816041  -0.000000  -0.000000   10.0000     0.1208
   44.000     0.000   2.990611   0.465575   0.000000   0.465575   0.000000  -0.000000   0.812446  -0.000000  -0.000000   10.0000     0.1204
   45.000     0.000   3.024766   0.471996   0.000000   0.471996   0.000000  -0.000000   0.807215   0.000000   0.000000   10.0000     0.1201


