xflr5 v6.53

Plane name :        A20 E0 R0
Polar name :        T1-25.0 m/s-VLM2-Inviscid
Freestream speed :  25.000 m/s


   alpha      Beta       CL          CDi        CDv        CD         CY         Cl         Cm         Cn        Cni       QInf        XCP
  -45.000     0.000  -2.867856   0.307593   0.000000   0.307593  -0.164007  -0.074225  -1.406861   0.037980   0.037980   25.0000     0.1077
  -44.000     0.000  -2.827510   0.301796   0.000000   0.301796  -0.165476  -0.074239  -1.395335   0.038783   0.038783   25.0000     0.1073
  -43.000     0.000  -2.785913   0.295577   0.000000   0.295577  -0.166669  -0.074173  -1.382490   0.039519   0.039519   25.0000     0.1070
  -42.000     0.000  -2.743061   0.288960   0.000000   0.288960  -0.167585  -0.074030  -1.368343   0.040184   0.040184   25.0000     0.1066
  -41.000     0.000  -2.698952   0.281968   0.000000   0.281968  -0.168223  -0.073814  -1.352911   0.040777   0.040777   25.0000     0.1062
  -40.000     0.000  -2.653585   0.274626   0.000000   0.274626  -0.168582  -0.073528  -1.336212   0.041293   0.041293   25.0000     0.1058
  -39.000     0.000  -2.606960   0.266958   0.000000   0.266958  -0.168660  -0.073175  -1.318267   0.041731   0.041731   25.0000     0.1054
  -38.000     0.000  -2.559080   0.258991   0.000000   0.258991  -0.168460  -0.072760  -1.299098   0.042088   0.042088   25.0000     0.1051
  -37.000     0.000  -2.509948   0.250753   0.000000   0.250753  -0.167979  -0.072285  -1.278728   0.042361   0.042361   25.0000     0.1047
  -36.000     0.000  -2.459569   0.242269   0.000000   0.242269  -0.167220  -0.071755  -1.257181   0.042550   0.042550   25.0000     0.1044
  -35.000     0.000  -2.407952   0.233570   0.000000   0.233570  -0.166183  -0.071173  -1.234485   0.042652   0.042652   25.0000     0.1040
  -34.000     0.000  -2.355105   0.224682   0.000000   0.224682  -0.164869  -0.070544  -1.210667   0.042666   0.042666   25.0000     0.1037
  -33.000     0.000  -2.301039   0.215635   0.000000   0.215635  -0.163280  -0.069872  -1.185756   0.042591   0.042591   25.0000     0.1033
  -32.000     0.000  -2.245766   0.206458   0.000000   0.206458  -0.161418  -0.069161  -1.159782   0.042425   0.042425   25.0000     0.1030
  -31.000     0.000  -2.189300   0.197180   0.000000   0.197180  -0.159285  -0.068416  -1.132776   0.042168   0.042168   25.0000     0.1027
  -30.000     0.000  -2.131657   0.187831   0.000000   0.187831  -0.156884  -0.067640  -1.104773   0.041820   0.041820   25.0000     0.1024
  -29.000     0.000  -2.072854   0.178441   0.000000   0.178441  -0.154217  -0.066838  -1.075805   0.041379   0.041379   25.0000     0.1021
  -28.000     0.000  -2.012913   0.169038   0.000000   0.169038  -0.151288  -0.066015  -1.045908   0.040847   0.040847   25.0000     0.1018
  -27.000     0.000  -1.951852   0.159653   0.000000   0.159653  -0.148101  -0.065175  -1.015119   0.040222   0.040222   25.0000     0.1015
  -26.000     0.000  -1.889696   0.150314   0.000000   0.150314  -0.144659  -0.064322  -0.983475   0.039507   0.039507   25.0000     0.1012
  -25.000     0.000  -1.826469   0.141051   0.000000   0.141051  -0.140966  -0.063460  -0.951015   0.038700   0.038700   25.0000     0.1010
  -24.000     0.000  -1.762196   0.131892   0.000000   0.131892  -0.137028  -0.062595  -0.917778   0.037804   0.037804   25.0000     0.1007
  -23.000     0.000  -1.696907   0.122865   0.000000   0.122865  -0.132848  -0.061730  -0.883804   0.036820   0.036820   25.0000     0.1004
  -22.000     0.000  -1.630631   0.113998   0.000000   0.113998  -0.128433  -0.060870  -0.849136   0.035748   0.035748   25.0000     0.1002
  -21.000     0.000  -1.563399   0.105318   0.000000   0.105318  -0.123786  -0.060019  -0.813815   0.034591   0.034591   25.0000     0.1000
  -20.000     0.000  -1.495243   0.096851   0.000000   0.096851  -0.118915  -0.059180  -0.777884   0.033351   0.033351   25.0000     0.0997
  -19.000     0.000  -1.426198   0.088623   0.000000   0.088623  -0.113824  -0.058359  -0.741387   0.032029   0.032029   25.0000     0.0995
  -18.000     0.000  -1.356299   0.080658   0.000000   0.080658  -0.108521  -0.057558  -0.704369   0.030628   0.030628   25.0000     0.0993
  -17.000     0.000  -1.285584   0.072982   0.000000   0.072982  -0.103011  -0.056783  -0.666875   0.029150   0.029150   25.0000     0.0991
  -16.000     0.000  -1.214091   0.065616   0.000000   0.065616  -0.097302  -0.056036  -0.628950   0.027599   0.027599   25.0000     0.0989
  -15.000     0.000  -1.141860   0.058583   0.000000   0.058583  -0.091399  -0.055320  -0.590640   0.025977   0.025977   25.0000     0.0987
  -14.000     0.000  -1.068931   0.051904   0.000000   0.051904  -0.085311  -0.054641  -0.551993   0.024287   0.024287   25.0000     0.0985
  -13.000     0.000  -0.995347   0.045598   0.000000   0.045598  -0.079045  -0.053999  -0.513055   0.022533   0.022533   25.0000     0.0983
  -12.000     0.000  -0.921151   0.039684   0.000000   0.039684  -0.072608  -0.053400  -0.473874   0.020718   0.020718   25.0000     0.0982
  -11.000     0.000  -0.846388   0.034180   0.000000   0.034180  -0.066009  -0.052845  -0.434497   0.018845   0.018845   25.0000     0.0980
  -10.000     0.000  -0.771102   0.029102   0.000000   0.029102  -0.059255  -0.052338  -0.394973   0.016920   0.016920   25.0000     0.0978
   -9.000     0.000  -0.695340   0.024464   0.000000   0.024464  -0.052355  -0.051881  -0.355349   0.014945   0.014945   25.0000     0.0976
   -8.000     0.000  -0.619148   0.020280   0.000000   0.020280  -0.045316  -0.051476  -0.315675   0.012925   0.012925   25.0000     0.0974
   -7.000     0.000  -0.542575   0.016562   0.000000   0.016562  -0.038148  -0.051126  -0.275997   0.010864   0.010864   25.0000     0.0972
   -6.000     0.000  -0.465668   0.013321   0.000000   0.013321  -0.030860  -0.050833  -0.236365   0.008766   0.008766   25.0000     0.0970
   -5.000     0.000  -0.388477   0.010565   0.000000   0.010565  -0.023460  -0.050597  -0.196827   0.006636   0.006636   25.0000     0.0967
   -4.000     0.000  -0.311050   0.008302   0.000000   0.008302  -0.015956  -0.050421  -0.157431   0.004478   0.004478   25.0000     0.0963
   -3.000     0.000  -0.233438   0.006539   0.000000   0.006539  -0.008359  -0.050307  -0.118226   0.002298   0.002298   25.0000     0.0957
   -2.000     0.000  -0.155691   0.005280   0.000000   0.005280  -0.000678  -0.050254  -0.079257   0.000099   0.000099   25.0000     0.0945
   -1.000     0.000  -0.077858   0.004528   0.000000   0.004528   0.007078  -0.050265  -0.040575  -0.002114  -0.002114   25.0000     0.0909
    0.000     0.000   0.000010   0.004285   0.000000   0.004285   0.014900  -0.050338  -0.002224  -0.004335  -0.004335   25.0000    57.7023
    1.000     0.000   0.077862   0.004550   0.000000   0.004550   0.022778  -0.050476   0.035747  -0.006560  -0.006560   25.0000     0.1052
    2.000     0.000   0.155648   0.005322   0.000000   0.005322   0.030702  -0.050678   0.073293  -0.008785  -0.008785   25.0000     0.1017
    3.000     0.000   0.233317   0.006598   0.000000   0.006598   0.038664  -0.050944   0.110368  -0.011003  -0.011003   25.0000     0.1005
    4.000     0.000   0.310821   0.008373   0.000000   0.008373   0.046652  -0.051273   0.146926  -0.013212  -0.013212   25.0000     0.1000
    5.000     0.000   0.388109   0.010641   0.000000   0.010641   0.054658  -0.051665   0.182923  -0.015404  -0.015404   25.0000     0.0997
    6.000     0.000   0.465131   0.013394   0.000000   0.013394   0.062671  -0.052120   0.218316  -0.017577  -0.017577   25.0000     0.0995
    7.000     0.000   0.541839   0.016623   0.000000   0.016623   0.070683  -0.052635   0.253061  -0.019725  -0.019725   25.0000     0.0994
    8.000     0.000   0.618185   0.020318   0.000000   0.020318   0.078682  -0.053211   0.287116  -0.021844  -0.021844   25.0000     0.0994
    9.000     0.000   0.694121   0.024466   0.000000   0.024466   0.086660  -0.053844   0.320439  -0.023928  -0.023928   25.0000     0.0994
   10.000     0.000   0.769601   0.029053   0.000000   0.029053   0.094606  -0.054534   0.352990  -0.025974  -0.025974   25.0000     0.0994
   11.000     0.000   0.844577   0.034066   0.000000   0.034066   0.102512  -0.055279   0.384729  -0.027977  -0.027977   25.0000     0.0995
   12.000     0.000   0.919005   0.039487   0.000000   0.039487   0.110366  -0.056077   0.415618  -0.029933  -0.029933   25.0000     0.0996
   13.000     0.000   0.992841   0.045299   0.000000   0.045299   0.118161  -0.056924   0.445618  -0.031837  -0.031837   25.0000     0.0997
   14.000     0.000   1.066042   0.051485   0.000000   0.051485   0.125886  -0.057819   0.474694  -0.033686  -0.033686   25.0000     0.0998
   15.000     0.000   1.138565   0.058022   0.000000   0.058022   0.133531  -0.058759   0.502809  -0.035476  -0.035476   25.0000     0.0999
   16.000     0.000   1.210370   0.064892   0.000000   0.064892   0.141088  -0.059741   0.529930  -0.037202  -0.037202   25.0000     0.1001
   17.000     0.000   1.281417   0.072072   0.000000   0.072072   0.148548  -0.060762   0.556023  -0.038862  -0.038862   25.0000     0.1002
   18.000     0.000   1.351667   0.079538   0.000000   0.079538   0.155900  -0.061818   0.581057  -0.040452  -0.040452   25.0000     0.1004
   19.000     0.000   1.421085   0.087267   0.000000   0.087267   0.163137  -0.062906   0.605002  -0.041968  -0.041968   25.0000     0.1006
   20.000     0.000   1.489633   0.095234   0.000000   0.095234   0.170250  -0.064022   0.627827  -0.043408  -0.043408   25.0000     0.1008
   21.000     0.000   1.557278   0.103414   0.000000   0.103414   0.177229  -0.065163   0.649506  -0.044769  -0.044769   25.0000     0.1010
   22.000     0.000   1.623987   0.111780   0.000000   0.111780   0.184067  -0.066325   0.670011  -0.046048  -0.046048   25.0000     0.1012
   23.000     0.000   1.689729   0.120304   0.000000   0.120304   0.190754  -0.067504   0.689318  -0.047243  -0.047243   25.0000     0.1015
   24.000     0.000   1.754476   0.128961   0.000000   0.128961   0.197284  -0.068696   0.707404  -0.048352  -0.048352   25.0000     0.1017
   25.000     0.000   1.818198   0.137720   0.000000   0.137720   0.203647  -0.069896   0.724246  -0.049372  -0.049372   25.0000     0.1020
   26.000     0.000   1.880869   0.146555   0.000000   0.146555   0.209836  -0.071100   0.739824  -0.050301  -0.050301   25.0000     0.1022
   27.000     0.000   1.942466   0.155436   0.000000   0.155436   0.215844  -0.072305   0.754118  -0.051139  -0.051139   25.0000     0.1025
   28.000     0.000   2.002965   0.164333   0.000000   0.164333   0.221663  -0.073505   0.767112  -0.051884  -0.051884   25.0000     0.1028
   29.000     0.000   2.062345   0.173219   0.000000   0.173219   0.227286  -0.074696   0.778790  -0.052535  -0.052535   25.0000     0.1031
   30.000     0.000   2.120587   0.182063   0.000000   0.182063   0.232707  -0.075874   0.789136  -0.053091  -0.053091   25.0000     0.1034
   31.000     0.000   2.177674   0.190836   0.000000   0.190836   0.237918  -0.077034   0.798140  -0.053552  -0.053552   25.0000     0.1037
   32.000     0.000   2.233588   0.199508   0.000000   0.199508   0.242914  -0.078172   0.805789  -0.053917  -0.053917   25.0000     0.1040
   33.000     0.000   2.288317   0.208051   0.000000   0.208051   0.247688  -0.079283   0.812075  -0.054186  -0.054186   25.0000     0.1043
   34.000     0.000   2.341847   0.216435   0.000000   0.216435   0.252234  -0.080363   0.816989  -0.054360  -0.054360   25.0000     0.1047
   35.000     0.000   2.394169   0.224632   0.000000   0.224632   0.256548  -0.081406   0.820526  -0.054439  -0.054439   25.0000     0.1050
   36.000     0.000   2.445273   0.232614   0.000000   0.232614   0.260623  -0.082410   0.822682  -0.054423  -0.054423   25.0000     0.1053
   37.000     0.000   2.495152   0.240352   0.000000   0.240352   0.264455  -0.083369   0.823453  -0.054313  -0.054313   25.0000     0.1057
   38.000     0.000   2.543801   0.247820   0.000000   0.247820   0.268038  -0.084279   0.822840  -0.054111  -0.054111   25.0000     0.1061
   39.000     0.000   2.591215   0.254991   0.000000   0.254991   0.271370  -0.085137   0.820842  -0.053818  -0.053818   25.0000     0.1064
   40.000     0.000   2.637393   0.261839   0.000000   0.261839   0.274445  -0.085937   0.817462  -0.053436  -0.053436   25.0000     0.1068
   41.000     0.000   2.682334   0.268339   0.000000   0.268339   0.277259  -0.086676   0.812704  -0.052966  -0.052966   25.0000     0.1072
   42.000     0.000   2.726038   0.274466   0.000000   0.274466   0.279811  -0.087349   0.806575  -0.052410  -0.052410   25.0000     0.1075
   43.000     0.000   2.768509   0.280197   0.000000   0.280197   0.282095  -0.087954   0.799081  -0.051772  -0.051772   25.0000     0.1079
   44.000     0.000   2.809750   0.285510   0.000000   0.285510   0.284111  -0.088486   0.790231  -0.051053  -0.051053   25.0000     0.1083
   45.000     0.000   2.849767   0.290383   0.000000   0.290383   0.285854  -0.088943   0.780037  -0.050256  -0.050256   25.0000     0.1087


