xflr5 v6.53

Plane name :        A-20 E0 R-20
Polar name :        T1-10.0 m/s-VLM2-Inviscid
Freestream speed :  10.000 m/s


   alpha      Beta       CL          CDi        CDv        CD         CY         Cl         Cm         Cn        Cni       QInf        XCP
  -45.000     0.000  -2.578919   0.488945   0.000000   0.488945   0.094106   0.055619  -1.493645  -0.017546  -0.017546   10.0000     0.1016
  -44.000     0.000  -2.548110   0.481924   0.000000   0.481924   0.095204   0.055990  -1.482432  -0.017981  -0.017981   10.0000     0.1009
  -43.000     0.000  -2.515999   0.474204   0.000000   0.474204   0.096215   0.056331  -1.469815  -0.018403  -0.018403   10.0000     0.1002
  -42.000     0.000  -2.482568   0.465814   0.000000   0.465814   0.097138   0.056641  -1.455811  -0.018809  -0.018809   10.0000     0.0995
  -41.000     0.000  -2.447800   0.456788   0.000000   0.456788   0.097972   0.056920  -1.440437  -0.019201  -0.019201   10.0000     0.0988
  -40.000     0.000  -2.411680   0.447159   0.000000   0.447159   0.098716   0.057171  -1.423710  -0.019576  -0.019576   10.0000     0.0981
  -39.000     0.000  -2.374197   0.436962   0.000000   0.436962   0.099369   0.057392  -1.405653  -0.019934  -0.019934   10.0000     0.0974
  -38.000     0.000  -2.335339   0.426234   0.000000   0.426234   0.099930   0.057584  -1.386286  -0.020275  -0.020275   10.0000     0.0968
  -37.000     0.000  -2.295099   0.415013   0.000000   0.415013   0.100399   0.057748  -1.365634  -0.020598  -0.020598   10.0000     0.0961
  -36.000     0.000  -2.253471   0.403338   0.000000   0.403338   0.100775   0.057885  -1.343721  -0.020901  -0.020901   10.0000     0.0954
  -35.000     0.000  -2.210451   0.391249   0.000000   0.391249   0.101058   0.057994  -1.320574  -0.021185  -0.021185   10.0000     0.0948
  -34.000     0.000  -2.166039   0.378786   0.000000   0.378786   0.101247   0.058078  -1.296222  -0.021449  -0.021449   10.0000     0.0941
  -33.000     0.000  -2.120235   0.365993   0.000000   0.365993   0.101342   0.058136  -1.270694  -0.021692  -0.021692   10.0000     0.0935
  -32.000     0.000  -2.073042   0.352910   0.000000   0.352910   0.101343   0.058169  -1.244020  -0.021915  -0.021915   10.0000     0.0928
  -31.000     0.000  -2.024468   0.339582   0.000000   0.339582   0.101250   0.058178  -1.216235  -0.022115  -0.022115   10.0000     0.0922
  -30.000     0.000  -1.974521   0.326052   0.000000   0.326052   0.101063   0.058164  -1.187371  -0.022294  -0.022294   10.0000     0.0915
  -29.000     0.000  -1.923212   0.312363   0.000000   0.312363   0.100782   0.058127  -1.157463  -0.022451  -0.022451   10.0000     0.0909
  -28.000     0.000  -1.870554   0.298561   0.000000   0.298561   0.100407   0.058069  -1.126549  -0.022585  -0.022585   10.0000     0.0903
  -27.000     0.000  -1.816564   0.284687   0.000000   0.284687   0.099940   0.057990  -1.094666  -0.022697  -0.022697   10.0000     0.0896
  -26.000     0.000  -1.761259   0.270788   0.000000   0.270788   0.099381   0.057891  -1.061852  -0.022786  -0.022786   10.0000     0.0890
  -25.000     0.000  -1.704662   0.256907   0.000000   0.256907   0.098729   0.057773  -1.028147  -0.022851  -0.022851   10.0000     0.0884
  -24.000     0.000  -1.646796   0.243088   0.000000   0.243088   0.097987   0.057637  -0.993593  -0.022894  -0.022894   10.0000     0.0877
  -23.000     0.000  -1.587686   0.229373   0.000000   0.229373   0.097155   0.057483  -0.958232  -0.022914  -0.022914   10.0000     0.0871
  -22.000     0.000  -1.527361   0.215806   0.000000   0.215806   0.096234   0.057313  -0.922107  -0.022911  -0.022911   10.0000     0.0864
  -21.000     0.000  -1.465852   0.202429   0.000000   0.202429   0.095225   0.057128  -0.885262  -0.022884  -0.022884   10.0000     0.0858
  -20.000     0.000  -1.403192   0.189283   0.000000   0.189283   0.094129   0.056928  -0.847741  -0.022835  -0.022835   10.0000     0.0851
  -19.000     0.000  -1.339416   0.176408   0.000000   0.176408   0.092948   0.056714  -0.809591  -0.022763  -0.022763   10.0000     0.0844
  -18.000     0.000  -1.274563   0.163844   0.000000   0.163844   0.091683   0.056487  -0.770858  -0.022669  -0.022669   10.0000     0.0836
  -17.000     0.000  -1.208670   0.151630   0.000000   0.151630   0.090336   0.056248  -0.731589  -0.022553  -0.022553   10.0000     0.0829
  -16.000     0.000  -1.141782   0.139803   0.000000   0.139803   0.088908   0.055998  -0.691832  -0.022415  -0.022415   10.0000     0.0821
  -15.000     0.000  -1.073940   0.128398   0.000000   0.128398   0.087401   0.055738  -0.651635  -0.022255  -0.022255   10.0000     0.0812
  -14.000     0.000  -1.005192   0.117450   0.000000   0.117450   0.085817   0.055469  -0.611048  -0.022075  -0.022075   10.0000     0.0803
  -13.000     0.000  -0.935585   0.106992   0.000000   0.106992   0.084158   0.055190  -0.570119  -0.021873  -0.021873   10.0000     0.0792
  -12.000     0.000  -0.865168   0.097056   0.000000   0.097056   0.082426   0.054904  -0.528899  -0.021652  -0.021652   10.0000     0.0781
  -11.000     0.000  -0.793993   0.087671   0.000000   0.087671   0.080623   0.054611  -0.487438  -0.021412  -0.021412   10.0000     0.0768
  -10.000     0.000  -0.722112   0.078865   0.000000   0.078865   0.078750   0.054311  -0.445786  -0.021152  -0.021152   10.0000     0.0753
   -9.000     0.000  -0.649580   0.070664   0.000000   0.070664   0.076812   0.054006  -0.403995  -0.020875  -0.020875   10.0000     0.0735
   -8.000     0.000  -0.576452   0.063093   0.000000   0.063093   0.074809   0.053696  -0.362115  -0.020579  -0.020579   10.0000     0.0713
   -7.000     0.000  -0.502785   0.056173   0.000000   0.056173   0.072744   0.053382  -0.320196  -0.020267  -0.020267   10.0000     0.0685
   -6.000     0.000  -0.428637   0.049925   0.000000   0.049925   0.070620   0.053064  -0.278291  -0.019939  -0.019939   10.0000     0.0649
   -5.000     0.000  -0.354068   0.044367   0.000000   0.044367   0.068440   0.052744  -0.236450  -0.019595  -0.019595   10.0000     0.0597
   -4.000     0.000  -0.279136   0.039516   0.000000   0.039516   0.066205   0.052420  -0.194725  -0.019237  -0.019237   10.0000     0.0518
   -3.000     0.000  -0.203904   0.035384   0.000000   0.035384   0.063919   0.052095  -0.153165  -0.018865  -0.018865   10.0000     0.0381
   -2.000     0.000  -0.128432   0.031983   0.000000   0.031983   0.061585   0.051769  -0.111822  -0.018481  -0.018481   10.0000     0.0085
   -1.000     0.000  -0.052783   0.029323   0.000000   0.029323   0.059205   0.051441  -0.070746  -0.018084  -0.018084   10.0000    -0.1060
    0.000     0.000   0.022981   0.027410   0.000000   0.027410   0.056782   0.051113  -0.029988  -0.017677  -0.017677   10.0000     0.5343
    1.000     0.000   0.098796   0.026250   0.000000   0.026250   0.054320   0.050785   0.010404  -0.017259  -0.017259   10.0000     0.1919
    2.000     0.000   0.174601   0.025845   0.000000   0.025845   0.051821   0.050456   0.050380  -0.016832  -0.016832   10.0000     0.1468
    3.000     0.000   0.250332   0.026194   0.000000   0.026194   0.049288   0.050129   0.089892  -0.016397  -0.016397   10.0000     0.1290
    4.000     0.000   0.325926   0.027296   0.000000   0.027296   0.046724   0.049802   0.128890  -0.015954  -0.015954   10.0000     0.1195
    5.000     0.000   0.401321   0.029147   0.000000   0.029147   0.044133   0.049475   0.167329  -0.015506  -0.015506   10.0000     0.1136
    6.000     0.000   0.476453   0.031738   0.000000   0.031738   0.041517   0.049150   0.205160  -0.015052  -0.015052   10.0000     0.1096
    7.000     0.000   0.551261   0.035061   0.000000   0.035061   0.038880   0.048826   0.242338  -0.014593  -0.014593   10.0000     0.1067
    8.000     0.000   0.625684   0.039105   0.000000   0.039105   0.036225   0.048503   0.278817  -0.014131  -0.014131   10.0000     0.1046
    9.000     0.000   0.699660   0.043856   0.000000   0.043856   0.033556   0.048182   0.314554  -0.013667  -0.013667   10.0000     0.1029
   10.000     0.000   0.773131   0.049298   0.000000   0.049298   0.030874   0.047861   0.349503  -0.013202  -0.013202   10.0000     0.1016
   11.000     0.000   0.846037   0.055414   0.000000   0.055414   0.028185   0.047542   0.383624  -0.012736  -0.012736   10.0000     0.1006
   12.000     0.000   0.918320   0.062182   0.000000   0.062182   0.025491   0.047223   0.416874  -0.012270  -0.012270   10.0000     0.0997
   13.000     0.000   0.989925   0.069582   0.000000   0.069582   0.022795   0.046906   0.449213  -0.011806  -0.011806   10.0000     0.0991
   14.000     0.000   1.060795   0.077589   0.000000   0.077589   0.020100   0.046589   0.480602  -0.011345  -0.011345   10.0000     0.0985
   15.000     0.000   1.130877   0.086177   0.000000   0.086177   0.017411   0.046272   0.511001  -0.010887  -0.010887   10.0000     0.0981
   16.000     0.000   1.200118   0.095319   0.000000   0.095319   0.014730   0.045956   0.540375  -0.010433  -0.010433   10.0000     0.0977
   17.000     0.000   1.268467   0.104984   0.000000   0.104984   0.012060   0.045640   0.568687  -0.009984  -0.009984   10.0000     0.0975
   18.000     0.000   1.335877   0.115142   0.000000   0.115142   0.009405   0.045322   0.595903  -0.009541  -0.009541   10.0000     0.0973
   19.000     0.000   1.402298   0.125760   0.000000   0.125760   0.006767   0.045004   0.621989  -0.009104  -0.009104   10.0000     0.0971
   20.000     0.000   1.467687   0.136803   0.000000   0.136803   0.004151   0.044685   0.646915  -0.008676  -0.008676   10.0000     0.0971
   21.000     0.000   1.532000   0.148237   0.000000   0.148237   0.001559   0.044364   0.670649  -0.008255  -0.008255   10.0000     0.0970
   22.000     0.000   1.595194   0.160022   0.000000   0.160022  -0.001005   0.044040   0.693162  -0.007844  -0.007844   10.0000     0.0970
   23.000     0.000   1.657232   0.172123   0.000000   0.172123  -0.003539   0.043714   0.714428  -0.007442  -0.007442   10.0000     0.0971
   24.000     0.000   1.718076   0.184499   0.000000   0.184499  -0.006039   0.043384   0.734420  -0.007051  -0.007051   10.0000     0.0971
   25.000     0.000   1.777692   0.197109   0.000000   0.197109  -0.008502   0.043051   0.753115  -0.006671  -0.006671   10.0000     0.0973
   26.000     0.000   1.836046   0.209914   0.000000   0.209914  -0.010925   0.042712   0.770488  -0.006302  -0.006302   10.0000     0.0974
   27.000     0.000   1.893110   0.222871   0.000000   0.222871  -0.013306   0.042369   0.786519  -0.005945  -0.005945   10.0000     0.0976
   28.000     0.000   1.948854   0.235937   0.000000   0.235937  -0.015641   0.042020   0.801189  -0.005602  -0.005602   10.0000     0.0978
   29.000     0.000   2.003255   0.249069   0.000000   0.249069  -0.017928   0.041664   0.814479  -0.005271  -0.005271   10.0000     0.0980
   30.000     0.000   2.056289   0.262224   0.000000   0.262224  -0.020164   0.041301   0.826374  -0.004954  -0.004954   10.0000     0.0982
   31.000     0.000   2.107936   0.275359   0.000000   0.275359  -0.022345   0.040931   0.836858  -0.004650  -0.004650   10.0000     0.0985
   32.000     0.000   2.158178   0.288428   0.000000   0.288428  -0.024470   0.040551   0.845920  -0.004361  -0.004361   10.0000     0.0988
   33.000     0.000   2.207000   0.301389   0.000000   0.301389  -0.026536   0.040163   0.853548  -0.004086  -0.004086   10.0000     0.0991
   34.000     0.000   2.254389   0.314198   0.000000   0.314198  -0.028540   0.039765   0.859733  -0.003826  -0.003826   10.0000     0.0995
   35.000     0.000   2.300335   0.326810   0.000000   0.326810  -0.030480   0.039355   0.864467  -0.003581  -0.003581   10.0000     0.0998
   36.000     0.000   2.344830   0.339183   0.000000   0.339183  -0.032354   0.038935   0.867744  -0.003351  -0.003351   10.0000     0.1002
   37.000     0.000   2.387869   0.351274   0.000000   0.351274  -0.034158   0.038502   0.869561  -0.003136  -0.003136   10.0000     0.1006
   38.000     0.000   2.429450   0.363040   0.000000   0.363040  -0.035892   0.038057   0.869915  -0.002936  -0.002936   10.0000     0.1010
   39.000     0.000   2.469571   0.374440   0.000000   0.374440  -0.037553   0.037598   0.868806  -0.002751  -0.002751   10.0000     0.1014
   40.000     0.000   2.508236   0.385433   0.000000   0.385433  -0.039138   0.037125   0.866235  -0.002581  -0.002581   10.0000     0.1018
   41.000     0.000   2.545449   0.395980   0.000000   0.395980  -0.040646   0.036637   0.862206  -0.002426  -0.002426   10.0000     0.1023
   42.000     0.000   2.581215   0.406041   0.000000   0.406041  -0.042076   0.036133   0.856723  -0.002286  -0.002286   10.0000     0.1028
   43.000     0.000   2.615546   0.415579   0.000000   0.415579  -0.043425   0.035613   0.849793  -0.002160  -0.002160   10.0000     0.1032
   44.000     0.000   2.648452   0.424558   0.000000   0.424558  -0.044691   0.035077   0.841424  -0.002048  -0.002048   10.0000     0.1037
   45.000     0.000   2.679946   0.432942   0.000000   0.432942  -0.045874   0.034522   0.831627  -0.001951  -0.001951   10.0000     0.1042


